/*---------------------------------------------------------------------------*\
  =========                 |
  \\      /  F ield         | OpenFOAM: The Open Source CFD Toolbox
   \\    /   O peration     | Website:  https://openfoam.org
    \\  /    A nd           | Version:  7
     \\/     M anipulation  |
\*---------------------------------------------------------------------------*/
Build  : 7
Exec   : icoFoam
Date   : Feb 11 2025
Time   : 00:30:01
Host   : "c207-021.frontera.tacc.utexas.edu"
PID    : 179841
I/O    : uncollated
Case   : /work2/10249/ctshep3141/frontera/coe347/COE-347-Open-Foam/of-project-1/extracred/Re-400-AR-2
nProcs : 1
sigFpe : Enabling floating point exception trapping (FOAM_SIGFPE).
fileModificationChecking : Monitoring run-time modified files using timeStampMaster (fileModificationSkew 10)
allowSystemOperations : Allowing user-supplied system call operations

// * * * * * * * * * * * * * * * * * * * * * * * * * * * * * * * * * * * * * //
Create time

Create mesh for time = 0

Reading transportProperties

Reading field p

Reading field U

Reading/calculating face flux field phi


Starting time loop

Time = 0.000625

Courant Number mean: 0 max: 0
smoothSolver:  Solving for Ux, Initial residual = 1, Final residual = 3.30387e-06, No Iterations 4
smoothSolver:  Solving for Uy, Initial residual = 0, Final residual = 0, No Iterations 0
DICPCG:  Solving for p, Initial residual = 1, Final residual = 0.0419481, No Iterations 176
time step continuity errors : sum local = 6.43172e-07, global = 2.50481e-21, cumulative = 2.50481e-21
DICPCG:  Solving for p, Initial residual = 0.153477, Final residual = 9.84124e-07, No Iterations 243
time step continuity errors : sum local = 4.3688e-11, global = -9.41849e-23, cumulative = 2.41062e-21
ExecutionTime = 0.27 s  ClockTime = 0 s

Time = 0.00125

Courant Number mean: 0.00353772 max: 0.133242
smoothSolver:  Solving for Ux, Initial residual = 0.297695, Final residual = 1.85389e-06, No Iterations 4
smoothSolver:  Solving for Uy, Initial residual = 0.329418, Final residual = 3.13467e-06, No Iterations 4
DICPCG:  Solving for p, Initial residual = 0.117936, Final residual = 0.00523107, No Iterations 171
time step continuity errors : sum local = 2.08035e-07, global = -1.30183e-21, cumulative = 1.10879e-21
DICPCG:  Solving for p, Initial residual = 0.0355644, Final residual = 9.15325e-07, No Iterations 234
time step continuity errors : sum local = 3.64888e-11, global = -6.67776e-22, cumulative = 4.41015e-22
ExecutionTime = 0.41 s  ClockTime = 0 s

Time = 0.001875

Courant Number mean: 0.0063641 max: 0.226667
smoothSolver:  Solving for Ux, Initial residual = 0.161495, Final residual = 1.02955e-06, No Iterations 4
smoothSolver:  Solving for Uy, Initial residual = 0.179884, Final residual = 1.72191e-06, No Iterations 4
DICPCG:  Solving for p, Initial residual = 0.0815133, Final residual = 0.00399311, No Iterations 170
time step continuity errors : sum local = 1.71474e-07, global = -1.66939e-20, cumulative = -1.62528e-20
DICPCG:  Solving for p, Initial residual = 0.0258094, Final residual = 8.57968e-07, No Iterations 232
time step continuity errors : sum local = 3.72821e-11, global = 6.52768e-21, cumulative = -9.72516e-21
ExecutionTime = 0.55 s  ClockTime = 0 s

Time = 0.0025

Courant Number mean: 0.00868945 max: 0.293222
smoothSolver:  Solving for Ux, Initial residual = 0.105011, Final residual = 6.85001e-07, No Iterations 4
smoothSolver:  Solving for Uy, Initial residual = 0.117263, Final residual = 1.12893e-06, No Iterations 4
DICPCG:  Solving for p, Initial residual = 0.0650231, Final residual = 0.00317188, No Iterations 167
time step continuity errors : sum local = 1.45859e-07, global = 2.71459e-21, cumulative = -7.01057e-21
DICPCG:  Solving for p, Initial residual = 0.0200205, Final residual = 8.34113e-07, No Iterations 228
time step continuity errors : sum local = 3.88369e-11, global = 4.12786e-21, cumulative = -2.88271e-21
ExecutionTime = 0.69 s  ClockTime = 1 s

Time = 0.003125

Courant Number mean: 0.0106471 max: 0.341498
smoothSolver:  Solving for Ux, Initial residual = 0.0755424, Final residual = 9.35892e-06, No Iterations 3
smoothSolver:  Solving for Uy, Initial residual = 0.0841766, Final residual = 8.14826e-07, No Iterations 4
DICPCG:  Solving for p, Initial residual = 0.0526505, Final residual = 0.00247128, No Iterations 165
time step continuity errors : sum local = 1.20267e-07, global = -1.36017e-20, cumulative = -1.64844e-20
DICPCG:  Solving for p, Initial residual = 0.0158798, Final residual = 8.76527e-07, No Iterations 226
time step continuity errors : sum local = 4.32061e-11, global = -1.56937e-21, cumulative = -1.80538e-20
ExecutionTime = 0.83 s  ClockTime = 1 s

Time = 0.00375

Courant Number mean: 0.0123326 max: 0.377201
smoothSolver:  Solving for Ux, Initial residual = 0.0579608, Final residual = 7.32836e-06, No Iterations 3
smoothSolver:  Solving for Uy, Initial residual = 0.0643759, Final residual = 6.26149e-07, No Iterations 4
DICPCG:  Solving for p, Initial residual = 0.0431021, Final residual = 0.00199658, No Iterations 164
time step continuity errors : sum local = 1.0204e-07, global = 1.26319e-20, cumulative = -5.42184e-21
DICPCG:  Solving for p, Initial residual = 0.0128101, Final residual = 9.52058e-07, No Iterations 224
time step continuity errors : sum local = 4.93035e-11, global = 2.37373e-20, cumulative = 1.83155e-20
ExecutionTime = 0.97 s  ClockTime = 1 s

Time = 0.004375

Courant Number mean: 0.013827 max: 0.40415
smoothSolver:  Solving for Ux, Initial residual = 0.0465249, Final residual = 6.00101e-06, No Iterations 3
smoothSolver:  Solving for Uy, Initial residual = 0.0515237, Final residual = 8.98063e-06, No Iterations 3
DICPCG:  Solving for p, Initial residual = 0.0363229, Final residual = 0.00168566, No Iterations 163
time step continuity errors : sum local = 9.00119e-08, global = -6.25463e-21, cumulative = 1.20609e-20
DICPCG:  Solving for p, Initial residual = 0.0109932, Final residual = 8.61221e-07, No Iterations 223
time step continuity errors : sum local = 4.66176e-11, global = 1.96613e-20, cumulative = 3.17221e-20
ExecutionTime = 1.11 s  ClockTime = 1 s

Time = 0.005

Courant Number mean: 0.0151684 max: 0.42492
smoothSolver:  Solving for Ux, Initial residual = 0.038672, Final residual = 5.06793e-06, No Iterations 3
smoothSolver:  Solving for Uy, Initial residual = 0.04267, Final residual = 7.46048e-06, No Iterations 3
DICPCG:  Solving for p, Initial residual = 0.0282162, Final residual = 0.00130085, No Iterations 163
time step continuity errors : sum local = 7.20151e-08, global = -6.98516e-21, cumulative = 2.4737e-20
DICPCG:  Solving for p, Initial residual = 0.00896332, Final residual = 8.31262e-07, No Iterations 222
time step continuity errors : sum local = 4.65e-11, global = 5.17549e-21, cumulative = 2.99125e-20
ExecutionTime = 1.24 s  ClockTime = 1 s

Time = 0.005625

Courant Number mean: 0.0163865 max: 0.441263
smoothSolver:  Solving for Ux, Initial residual = 0.0329893, Final residual = 4.38033e-06, No Iterations 3
smoothSolver:  Solving for Uy, Initial residual = 0.0362871, Final residual = 6.36018e-06, No Iterations 3
DICPCG:  Solving for p, Initial residual = 0.0239014, Final residual = 0.00113392, No Iterations 162
time step continuity errors : sum local = 6.45702e-08, global = -4.57038e-21, cumulative = 2.53421e-20
DICPCG:  Solving for p, Initial residual = 0.00763898, Final residual = 8.37346e-07, No Iterations 221
time step continuity errors : sum local = 4.8085e-11, global = -1.13893e-20, cumulative = 1.39528e-20
ExecutionTime = 1.38 s  ClockTime = 1 s

Time = 0.00625

Courant Number mean: 0.0175033 max: 0.454386
smoothSolver:  Solving for Ux, Initial residual = 0.0287104, Final residual = 3.85709e-06, No Iterations 3
smoothSolver:  Solving for Uy, Initial residual = 0.0315076, Final residual = 5.53338e-06, No Iterations 3
DICPCG:  Solving for p, Initial residual = 0.0215212, Final residual = 0.000978122, No Iterations 162
time step continuity errors : sum local = 5.70813e-08, global = 1.62606e-20, cumulative = 3.02134e-20
DICPCG:  Solving for p, Initial residual = 0.00684975, Final residual = 8.9898e-07, No Iterations 220
time step continuity errors : sum local = 5.28917e-11, global = 1.31237e-20, cumulative = 4.33371e-20
ExecutionTime = 1.51 s  ClockTime = 1 s

Time = 0.006875

Courant Number mean: 0.0185352 max: 0.465126
smoothSolver:  Solving for Ux, Initial residual = 0.025424, Final residual = 3.44968e-06, No Iterations 3
smoothSolver:  Solving for Uy, Initial residual = 0.0278163, Final residual = 4.89253e-06, No Iterations 3
DICPCG:  Solving for p, Initial residual = 0.0186695, Final residual = 0.000883143, No Iterations 161
time step continuity errors : sum local = 5.26328e-08, global = -1.42507e-20, cumulative = 2.90864e-20
DICPCG:  Solving for p, Initial residual = 0.00612232, Final residual = 9.21286e-07, No Iterations 219
time step continuity errors : sum local = 5.52414e-11, global = -7.33046e-21, cumulative = 2.1756e-20
ExecutionTime = 1.65 s  ClockTime = 1 s

Time = 0.0075

Courant Number mean: 0.0195074 max: 0.474074
smoothSolver:  Solving for Ux, Initial residual = 0.0228214, Final residual = 3.12229e-06, No Iterations 3
smoothSolver:  Solving for Uy, Initial residual = 0.0248902, Final residual = 4.38259e-06, No Iterations 3
DICPCG:  Solving for p, Initial residual = 0.0169479, Final residual = 0.000772876, No Iterations 161
time step continuity errors : sum local = 4.6849e-08, global = -1.58113e-20, cumulative = 5.94465e-21
DICPCG:  Solving for p, Initial residual = 0.00557922, Final residual = 9.81279e-07, No Iterations 218
time step continuity errors : sum local = 5.9773e-11, global = 2.7381e-20, cumulative = 3.33256e-20
ExecutionTime = 1.78 s  ClockTime = 2 s

Time = 0.008125

Courant Number mean: 0.0204275 max: 0.481651
smoothSolver:  Solving for Ux, Initial residual = 0.0206978, Final residual = 2.85218e-06, No Iterations 3
smoothSolver:  Solving for Uy, Initial residual = 0.0225214, Final residual = 3.96805e-06, No Iterations 3
DICPCG:  Solving for p, Initial residual = 0.0151657, Final residual = 0.000736575, No Iterations 160
time step continuity errors : sum local = 4.53336e-08, global = -2.1628e-20, cumulative = 1.16976e-20
DICPCG:  Solving for p, Initial residual = 0.00513568, Final residual = 8.84194e-07, No Iterations 218
time step continuity errors : sum local = 5.4674e-11, global = 7.77165e-21, cumulative = 1.94693e-20
ExecutionTime = 1.91 s  ClockTime = 2 s

Time = 0.00875

Courant Number mean: 0.0212997 max: 0.48816
smoothSolver:  Solving for Ux, Initial residual = 0.0189298, Final residual = 2.62474e-06, No Iterations 3
smoothSolver:  Solving for Uy, Initial residual = 0.0205647, Final residual = 3.62485e-06, No Iterations 3
DICPCG:  Solving for p, Initial residual = 0.0140455, Final residual = 0.000637899, No Iterations 160
time step continuity errors : sum local = 3.98145e-08, global = 3.40142e-20, cumulative = 5.34835e-20
DICPCG:  Solving for p, Initial residual = 0.00473609, Final residual = 9.66716e-07, No Iterations 216
time step continuity errors : sum local = 6.06039e-11, global = -2.75833e-20, cumulative = 2.59002e-20
ExecutionTime = 2.05 s  ClockTime = 2 s

Time = 0.009375

Courant Number mean: 0.0221294 max: 0.493824
smoothSolver:  Solving for Ux, Initial residual = 0.0174401, Final residual = 2.43109e-06, No Iterations 3
smoothSolver:  Solving for Uy, Initial residual = 0.0189224, Final residual = 3.33607e-06, No Iterations 3
DICPCG:  Solving for p, Initial residual = 0.0130867, Final residual = 0.000570027, No Iterations 160
time step continuity errors : sum local = 3.60154e-08, global = 2.18509e-20, cumulative = 4.77511e-20
DICPCG:  Solving for p, Initial residual = 0.00441418, Final residual = 9.94412e-07, No Iterations 215
time step continuity errors : sum local = 6.30602e-11, global = 4.51052e-20, cumulative = 9.28563e-20
ExecutionTime = 2.18 s  ClockTime = 2 s

Time = 0.01

Courant Number mean: 0.0229202 max: 0.498809
smoothSolver:  Solving for Ux, Initial residual = 0.0161788, Final residual = 2.26577e-06, No Iterations 3
smoothSolver:  Solving for Uy, Initial residual = 0.0175244, Final residual = 3.0897e-06, No Iterations 3
DICPCG:  Solving for p, Initial residual = 0.0122025, Final residual = 0.000582511, No Iterations 159
time step continuity errors : sum local = 3.72048e-08, global = 1.7331e-20, cumulative = 1.10187e-19
DICPCG:  Solving for p, Initial residual = 0.00417879, Final residual = 9.23098e-07, No Iterations 215
time step continuity errors : sum local = 5.91136e-11, global = -1.95811e-20, cumulative = 9.06062e-20
ExecutionTime = 2.32 s  ClockTime = 2 s

Time = 0.010625

Courant Number mean: 0.023676 max: 0.503239
smoothSolver:  Solving for Ux, Initial residual = 0.0150914, Final residual = 2.1224e-06, No Iterations 3
smoothSolver:  Solving for Uy, Initial residual = 0.0163203, Final residual = 2.87703e-06, No Iterations 3
DICPCG:  Solving for p, Initial residual = 0.0115246, Final residual = 0.000572559, No Iterations 158
time step continuity errors : sum local = 3.69206e-08, global = -4.63698e-21, cumulative = 8.59693e-20
DICPCG:  Solving for p, Initial residual = 0.00399977, Final residual = 8.66121e-07, No Iterations 215
time step continuity errors : sum local = 5.59166e-11, global = -1.97724e-20, cumulative = 6.61969e-20
ExecutionTime = 2.45 s  ClockTime = 2 s

Time = 0.01125

Courant Number mean: 0.0243996 max: 0.507212
smoothSolver:  Solving for Ux, Initial residual = 0.0141436, Final residual = 1.99708e-06, No Iterations 3
smoothSolver:  Solving for Uy, Initial residual = 0.0152722, Final residual = 2.69164e-06, No Iterations 3
DICPCG:  Solving for p, Initial residual = 0.010978, Final residual = 0.000517379, No Iterations 158
time step continuity errors : sum local = 3.35951e-08, global = 9.53934e-21, cumulative = 7.57362e-20
DICPCG:  Solving for p, Initial residual = 0.00381808, Final residual = 9.5991e-07, No Iterations 214
time step continuity errors : sum local = 6.23423e-11, global = 2.06731e-20, cumulative = 9.64093e-20
ExecutionTime = 2.58 s  ClockTime = 2 s

Time = 0.011875

Courant Number mean: 0.0250976 max: 0.510801
smoothSolver:  Solving for Ux, Initial residual = 0.0133086, Final residual = 1.88673e-06, No Iterations 3
smoothSolver:  Solving for Uy, Initial residual = 0.0143508, Final residual = 2.52856e-06, No Iterations 3
DICPCG:  Solving for p, Initial residual = 0.0104923, Final residual = 0.000476542, No Iterations 158
time step continuity errors : sum local = 3.11462e-08, global = -2.29327e-20, cumulative = 7.34766e-20
DICPCG:  Solving for p, Initial residual = 0.00366361, Final residual = 9.30758e-07, No Iterations 214
time step continuity errors : sum local = 6.08792e-11, global = 2.89961e-20, cumulative = 1.02473e-19
ExecutionTime = 2.71 s  ClockTime = 3 s

Time = 0.0125

Courant Number mean: 0.0257767 max: 0.514065
smoothSolver:  Solving for Ux, Initial residual = 0.0125619, Final residual = 1.78781e-06, No Iterations 3
smoothSolver:  Solving for Uy, Initial residual = 0.0135357, Final residual = 2.38387e-06, No Iterations 3
DICPCG:  Solving for p, Initial residual = 0.00996128, Final residual = 0.0004421, No Iterations 158
time step continuity errors : sum local = 2.90793e-08, global = -9.23268e-21, cumulative = 9.32399e-20
DICPCG:  Solving for p, Initial residual = 0.00349545, Final residual = 8.85147e-07, No Iterations 214
time step continuity errors : sum local = 5.82221e-11, global = 2.61314e-20, cumulative = 1.19371e-19
ExecutionTime = 2.84 s  ClockTime = 3 s

Time = 0.013125

Courant Number mean: 0.0264353 max: 0.517051
smoothSolver:  Solving for Ux, Initial residual = 0.0118966, Final residual = 1.69818e-06, No Iterations 3
smoothSolver:  Solving for Uy, Initial residual = 0.0128086, Final residual = 2.25473e-06, No Iterations 3
DICPCG:  Solving for p, Initial residual = 0.00955351, Final residual = 0.000466471, No Iterations 157
time step continuity errors : sum local = 3.0856e-08, global = 9.55661e-22, cumulative = 1.20327e-19
DICPCG:  Solving for p, Initial residual = 0.00339677, Final residual = 8.48631e-07, No Iterations 214
time step continuity errors : sum local = 5.6116e-11, global = 1.40942e-20, cumulative = 1.34421e-19
ExecutionTime = 2.98 s  ClockTime = 3 s

Time = 0.01375

Courant Number mean: 0.0270735 max: 0.519797
smoothSolver:  Solving for Ux, Initial residual = 0.0112998, Final residual = 1.61719e-06, No Iterations 3
smoothSolver:  Solving for Uy, Initial residual = 0.0121557, Final residual = 2.13865e-06, No Iterations 3
DICPCG:  Solving for p, Initial residual = 0.00919055, Final residual = 0.00042816, No Iterations 157
time step continuity errors : sum local = 2.84655e-08, global = 3.0567e-21, cumulative = 1.37478e-19
DICPCG:  Solving for p, Initial residual = 0.00326592, Final residual = 9.75232e-07, No Iterations 213
time step continuity errors : sum local = 6.48289e-11, global = -2.96929e-20, cumulative = 1.07785e-19
ExecutionTime = 3.11 s  ClockTime = 3 s

Time = 0.014375

Courant Number mean: 0.0276927 max: 0.522333
smoothSolver:  Solving for Ux, Initial residual = 0.0107604, Final residual = 1.54394e-06, No Iterations 3
smoothSolver:  Solving for Uy, Initial residual = 0.0115668, Final residual = 2.03384e-06, No Iterations 3
DICPCG:  Solving for p, Initial residual = 0.00886145, Final residual = 0.000431717, No Iterations 155
time step continuity errors : sum local = 2.88463e-08, global = 6.84812e-20, cumulative = 1.76266e-19
DICPCG:  Solving for p, Initial residual = 0.00315032, Final residual = 9.29822e-07, No Iterations 213
time step continuity errors : sum local = 6.20702e-11, global = -7.58448e-20, cumulative = 1.00422e-19
ExecutionTime = 3.24 s  ClockTime = 3 s

Time = 0.015

Courant Number mean: 0.0282939 max: 0.524686
smoothSolver:  Solving for Ux, Initial residual = 0.0102701, Final residual = 1.47712e-06, No Iterations 3
smoothSolver:  Solving for Uy, Initial residual = 0.011033, Final residual = 1.93869e-06, No Iterations 3
DICPCG:  Solving for p, Initial residual = 0.00858425, Final residual = 0.000404951, No Iterations 155
time step continuity errors : sum local = 2.71743e-08, global = -4.28503e-20, cumulative = 5.75712e-20
DICPCG:  Solving for p, Initial residual = 0.00306869, Final residual = 8.95094e-07, No Iterations 213
time step continuity errors : sum local = 6.0007e-11, global = -1.54066e-21, cumulative = 5.60306e-20
ExecutionTime = 3.37 s  ClockTime = 3 s

Time = 0.015625

Courant Number mean: 0.0288777 max: 0.526877
smoothSolver:  Solving for Ux, Initial residual = 0.00982196, Final residual = 1.41589e-06, No Iterations 3
smoothSolver:  Solving for Uy, Initial residual = 0.0105465, Final residual = 1.85192e-06, No Iterations 3
DICPCG:  Solving for p, Initial residual = 0.00830431, Final residual = 0.000380091, No Iterations 155
time step continuity errors : sum local = 2.56129e-08, global = 1.49266e-20, cumulative = 7.09572e-20
DICPCG:  Solving for p, Initial residual = 0.00296261, Final residual = 9.59106e-07, No Iterations 212
time step continuity errors : sum local = 6.45997e-11, global = 7.84572e-21, cumulative = 7.8803e-20
ExecutionTime = 3.5 s  ClockTime = 3 s

Time = 0.01625

Courant Number mean: 0.029445 max: 0.528923
smoothSolver:  Solving for Ux, Initial residual = 0.00941028, Final residual = 1.35953e-06, No Iterations 3
smoothSolver:  Solving for Uy, Initial residual = 0.010101, Final residual = 1.77247e-06, No Iterations 3
DICPCG:  Solving for p, Initial residual = 0.00803129, Final residual = 0.000396916, No Iterations 92
time step continuity errors : sum local = 3.13553e-08, global = -2.41763e-20, cumulative = 5.46267e-20
DICPCG:  Solving for p, Initial residual = 0.00290041, Final residual = 8.82369e-07, No Iterations 213
time step continuity errors : sum local = 5.96758e-11, global = -2.95948e-20, cumulative = 2.50318e-20
ExecutionTime = 3.61 s  ClockTime = 3 s

Time = 0.016875

Courant Number mean: 0.0299968 max: 0.530841
smoothSolver:  Solving for Ux, Initial residual = 0.00902694, Final residual = 1.3067e-06, No Iterations 3
smoothSolver:  Solving for Uy, Initial residual = 0.00970014, Final residual = 1.70094e-06, No Iterations 3
DICPCG:  Solving for p, Initial residual = 0.00784669, Final residual = 0.000381383, No Iterations 85
time step continuity errors : sum local = 2.84023e-08, global = 5.14169e-21, cumulative = 3.01735e-20
DICPCG:  Solving for p, Initial residual = 0.00283533, Final residual = 8.97333e-07, No Iterations 213
time step continuity errors : sum local = 6.08817e-11, global = 5.32436e-21, cumulative = 3.54979e-20
ExecutionTime = 3.72 s  ClockTime = 4 s

Time = 0.0175

Courant Number mean: 0.0305338 max: 0.532642
smoothSolver:  Solving for Ux, Initial residual = 0.00868144, Final residual = 1.25879e-06, No Iterations 3
smoothSolver:  Solving for Uy, Initial residual = 0.00932013, Final residual = 1.63303e-06, No Iterations 3
DICPCG:  Solving for p, Initial residual = 0.0076199, Final residual = 0.000375986, No Iterations 85
time step continuity errors : sum local = 2.85814e-08, global = 1.14317e-20, cumulative = 4.69296e-20
DICPCG:  Solving for p, Initial residual = 0.00279222, Final residual = 9.8226e-07, No Iterations 212
time step continuity errors : sum local = 6.69053e-11, global = -1.1526e-20, cumulative = 3.54036e-20
ExecutionTime = 3.83 s  ClockTime = 4 s

Time = 0.018125

Courant Number mean: 0.031062 max: 0.534339
smoothSolver:  Solving for Ux, Initial residual = 0.00836042, Final residual = 1.2138e-06, No Iterations 3
smoothSolver:  Solving for Uy, Initial residual = 0.0089723, Final residual = 1.57087e-06, No Iterations 3
DICPCG:  Solving for p, Initial residual = 0.00741787, Final residual = 0.000351837, No Iterations 85
time step continuity errors : sum local = 2.66346e-08, global = -2.70428e-20, cumulative = 8.36079e-21
DICPCG:  Solving for p, Initial residual = 0.00270792, Final residual = 9.45744e-07, No Iterations 212
time step continuity errors : sum local = 6.46044e-11, global = 1.6294e-20, cumulative = 2.46548e-20
ExecutionTime = 3.94 s  ClockTime = 4 s

Time = 0.01875

Courant Number mean: 0.0315804 max: 0.535942
smoothSolver:  Solving for Ux, Initial residual = 0.00806239, Final residual = 1.17209e-06, No Iterations 3
smoothSolver:  Solving for Uy, Initial residual = 0.00864818, Final residual = 1.51301e-06, No Iterations 3
DICPCG:  Solving for p, Initial residual = 0.00721077, Final residual = 0.000336993, No Iterations 85
time step continuity errors : sum local = 2.56409e-08, global = -4.30249e-20, cumulative = -1.83701e-20
DICPCG:  Solving for p, Initial residual = 0.00264011, Final residual = 9.17385e-07, No Iterations 212
time step continuity errors : sum local = 6.284e-11, global = -3.92361e-20, cumulative = -5.76062e-20
ExecutionTime = 4.04 s  ClockTime = 4 s

Time = 0.019375

Courant Number mean: 0.0320885 max: 0.537458
smoothSolver:  Solving for Ux, Initial residual = 0.00778381, Final residual = 1.13314e-06, No Iterations 3
smoothSolver:  Solving for Uy, Initial residual = 0.00834778, Final residual = 1.45928e-06, No Iterations 3
DICPCG:  Solving for p, Initial residual = 0.00733037, Final residual = 0.000349086, No Iterations 84
time step continuity errors : sum local = 2.63678e-08, global = 4.02147e-20, cumulative = -1.73915e-20
DICPCG:  Solving for p, Initial residual = 0.00259338, Final residual = 9.05153e-07, No Iterations 212
time step continuity errors : sum local = 6.21612e-11, global = 1.05502e-20, cumulative = -6.84126e-21
ExecutionTime = 4.15 s  ClockTime = 4 s

Time = 0.02

Courant Number mean: 0.0325863 max: 0.538895
smoothSolver:  Solving for Ux, Initial residual = 0.00752304, Final residual = 1.09668e-06, No Iterations 3
smoothSolver:  Solving for Uy, Initial residual = 0.00806788, Final residual = 1.40913e-06, No Iterations 3
DICPCG:  Solving for p, Initial residual = 0.00691504, Final residual = 0.000330172, No Iterations 84
time step continuity errors : sum local = 2.50269e-08, global = 1.96849e-20, cumulative = 1.28437e-20
DICPCG:  Solving for p, Initial residual = 0.00251262, Final residual = 8.66372e-07, No Iterations 212
time step continuity errors : sum local = 5.96409e-11, global = -6.46432e-20, cumulative = -5.17996e-20
ExecutionTime = 4.26 s  ClockTime = 4 s

Time = 0.020625

Courant Number mean: 0.0330738 max: 0.54026
smoothSolver:  Solving for Ux, Initial residual = 0.00727857, Final residual = 1.06247e-06, No Iterations 3
smoothSolver:  Solving for Uy, Initial residual = 0.00780607, Final residual = 1.36231e-06, No Iterations 3
DICPCG:  Solving for p, Initial residual = 0.00713127, Final residual = 0.000348409, No Iterations 83
time step continuity errors : sum local = 2.62214e-08, global = -2.06929e-21, cumulative = -5.38689e-20
DICPCG:  Solving for p, Initial residual = 0.00247178, Final residual = 8.49422e-07, No Iterations 212
time step continuity errors : sum local = 5.86137e-11, global = 2.98496e-22, cumulative = -5.35704e-20
ExecutionTime = 4.37 s  ClockTime = 4 s

Time = 0.02125

Courant Number mean: 0.033552 max: 0.541559
smoothSolver:  Solving for Ux, Initial residual = 0.00704864, Final residual = 1.03028e-06, No Iterations 3
smoothSolver:  Solving for Uy, Initial residual = 0.00756084, Final residual = 1.3185e-06, No Iterations 3
DICPCG:  Solving for p, Initial residual = 0.00660598, Final residual = 0.000309586, No Iterations 84
time step continuity errors : sum local = 2.35114e-08, global = -1.45021e-20, cumulative = -6.80725e-20
DICPCG:  Solving for p, Initial residual = 0.00240717, Final residual = 9.99334e-07, No Iterations 211
time step continuity errors : sum local = 6.91462e-11, global = 6.17072e-21, cumulative = -6.19018e-20
ExecutionTime = 4.48 s  ClockTime = 4 s

Time = 0.021875

Courant Number mean: 0.0340204 max: 0.542797
smoothSolver:  Solving for Ux, Initial residual = 0.00683266, Final residual = 9.99989e-07, No Iterations 3
smoothSolver:  Solving for Uy, Initial residual = 0.00733115, Final residual = 1.27732e-06, No Iterations 3
DICPCG:  Solving for p, Initial residual = 0.00648063, Final residual = 0.000298085, No Iterations 84
time step continuity errors : sum local = 2.26775e-08, global = 2.94117e-20, cumulative = -3.24901e-20
DICPCG:  Solving for p, Initial residual = 0.0023619, Final residual = 9.75632e-07, No Iterations 211
time step continuity errors : sum local = 6.7653e-11, global = -9.88351e-21, cumulative = -4.23736e-20
ExecutionTime = 4.59 s  ClockTime = 4 s

Time = 0.0225

Courant Number mean: 0.0344793 max: 0.543979
smoothSolver:  Solving for Ux, Initial residual = 0.00663067, Final residual = 9.71387e-07, No Iterations 3
smoothSolver:  Solving for Uy, Initial residual = 0.00711541, Final residual = 1.2386e-06, No Iterations 3
DICPCG:  Solving for p, Initial residual = 0.00645844, Final residual = 0.000311246, No Iterations 83
time step continuity errors : sum local = 2.35423e-08, global = -5.75488e-21, cumulative = -4.81285e-20
DICPCG:  Solving for p, Initial residual = 0.00231769, Final residual = 9.59965e-07, No Iterations 211
time step continuity errors : sum local = 6.66998e-11, global = -1.4103e-20, cumulative = -6.22315e-20
ExecutionTime = 4.69 s  ClockTime = 5 s

Time = 0.023125

Courant Number mean: 0.0349294 max: 0.545108
smoothSolver:  Solving for Ux, Initial residual = 0.00644066, Final residual = 9.44368e-07, No Iterations 3
smoothSolver:  Solving for Uy, Initial residual = 0.00691203, Final residual = 1.20218e-06, No Iterations 3
DICPCG:  Solving for p, Initial residual = 0.00634668, Final residual = 0.000300838, No Iterations 83
time step continuity errors : sum local = 2.27848e-08, global = 3.87557e-20, cumulative = -2.34757e-20
DICPCG:  Solving for p, Initial residual = 0.00229115, Final residual = 9.48748e-07, No Iterations 211
time step continuity errors : sum local = 6.60464e-11, global = -5.79185e-21, cumulative = -2.92676e-20
ExecutionTime = 4.8 s  ClockTime = 5 s

Time = 0.02375

Courant Number mean: 0.0353707 max: 0.546189
smoothSolver:  Solving for Ux, Initial residual = 0.0062616, Final residual = 9.1876e-07, No Iterations 3
smoothSolver:  Solving for Uy, Initial residual = 0.0067203, Final residual = 1.16783e-06, No Iterations 3
DICPCG:  Solving for p, Initial residual = 0.00615753, Final residual = 0.000296876, No Iterations 83
time step continuity errors : sum local = 2.24777e-08, global = -1.57618e-20, cumulative = -4.50294e-20
DICPCG:  Solving for p, Initial residual = 0.00224969, Final residual = 9.24336e-07, No Iterations 211
time step continuity errors : sum local = 6.44638e-11, global = 2.07334e-20, cumulative = -2.4296e-20
ExecutionTime = 4.9 s  ClockTime = 5 s

Time = 0.024375

Courant Number mean: 0.0358035 max: 0.547225
smoothSolver:  Solving for Ux, Initial residual = 0.00609213, Final residual = 8.94566e-07, No Iterations 3
smoothSolver:  Solving for Uy, Initial residual = 0.00653936, Final residual = 1.13535e-06, No Iterations 3
DICPCG:  Solving for p, Initial residual = 0.00605044, Final residual = 0.000287713, No Iterations 83
time step continuity errors : sum local = 2.18093e-08, global = -2.2933e-20, cumulative = -4.7229e-20
DICPCG:  Solving for p, Initial residual = 0.00220768, Final residual = 9.04146e-07, No Iterations 211
time step continuity errors : sum local = 6.3168e-11, global = -2.60722e-20, cumulative = -7.33012e-20
ExecutionTime = 5.01 s  ClockTime = 5 s

Time = 0.025

Courant Number mean: 0.0362279 max: 0.548219
smoothSolver:  Solving for Ux, Initial residual = 0.00593155, Final residual = 8.71727e-07, No Iterations 3
smoothSolver:  Solving for Uy, Initial residual = 0.00636813, Final residual = 1.10459e-06, No Iterations 3
DICPCG:  Solving for p, Initial residual = 0.00594368, Final residual = 0.000280194, No Iterations 83
time step continuity errors : sum local = 2.12578e-08, global = 2.03849e-20, cumulative = -5.29163e-20
DICPCG:  Solving for p, Initial residual = 0.00216867, Final residual = 8.83533e-07, No Iterations 211
time step continuity errors : sum local = 6.18352e-11, global = 1.21395e-20, cumulative = -4.07768e-20
ExecutionTime = 5.12 s  ClockTime = 5 s

Time = 0.025625

Courant Number mean: 0.0366476 max: 0.549173
smoothSolver:  Solving for Ux, Initial residual = 0.00577881, Final residual = 8.5003e-07, No Iterations 3
smoothSolver:  Solving for Uy, Initial residual = 0.00620571, Final residual = 1.07547e-06, No Iterations 3
DICPCG:  Solving for p, Initial residual = 0.00584024, Final residual = 0.000273108, No Iterations 83
time step continuity errors : sum local = 2.07373e-08, global = 5.11073e-21, cumulative = -3.56661e-20
DICPCG:  Solving for p, Initial residual = 0.00213261, Final residual = 8.62441e-07, No Iterations 211
time step continuity errors : sum local = 6.04599e-11, global = -2.69893e-20, cumulative = -6.26554e-20
ExecutionTime = 5.22 s  ClockTime = 5 s

Time = 0.02625

Courant Number mean: 0.0370626 max: 0.550091
smoothSolver:  Solving for Ux, Initial residual = 0.005633, Final residual = 8.29346e-07, No Iterations 3
smoothSolver:  Solving for Uy, Initial residual = 0.00605156, Final residual = 1.04785e-06, No Iterations 3
DICPCG:  Solving for p, Initial residual = 0.00574762, Final residual = 0.000285054, No Iterations 82
time step continuity errors : sum local = 2.15452e-08, global = -1.28415e-20, cumulative = -7.54969e-20
DICPCG:  Solving for p, Initial residual = 0.00211091, Final residual = 8.47391e-07, No Iterations 211
time step continuity errors : sum local = 5.94977e-11, global = -2.94718e-20, cumulative = -1.04969e-19
ExecutionTime = 5.33 s  ClockTime = 5 s

Time = 0.026875

Courant Number mean: 0.0374718 max: 0.550974
smoothSolver:  Solving for Ux, Initial residual = 0.00549364, Final residual = 8.09582e-07, No Iterations 3
smoothSolver:  Solving for Uy, Initial residual = 0.00590564, Final residual = 1.02161e-06, No Iterations 3
DICPCG:  Solving for p, Initial residual = 0.00565625, Final residual = 0.000280412, No Iterations 82
time step continuity errors : sum local = 2.11992e-08, global = -4.35222e-20, cumulative = -1.48491e-19
DICPCG:  Solving for p, Initial residual = 0.00208704, Final residual = 8.29227e-07, No Iterations 211
time step continuity errors : sum local = 5.83112e-11, global = 4.26775e-20, cumulative = -1.05813e-19
ExecutionTime = 5.44 s  ClockTime = 5 s

Time = 0.0275

Courant Number mean: 0.0378749 max: 0.551825
smoothSolver:  Solving for Ux, Initial residual = 0.00536088, Final residual = 7.90707e-07, No Iterations 3
smoothSolver:  Solving for Uy, Initial residual = 0.00576673, Final residual = 9.96634e-07, No Iterations 3
DICPCG:  Solving for p, Initial residual = 0.00556359, Final residual = 0.000274105, No Iterations 82
time step continuity errors : sum local = 2.07391e-08, global = -4.75712e-20, cumulative = -1.53385e-19
DICPCG:  Solving for p, Initial residual = 0.00205599, Final residual = 9.92874e-07, No Iterations 210
time step continuity errors : sum local = 6.99253e-11, global = 2.68131e-20, cumulative = -1.26572e-19
ExecutionTime = 5.54 s  ClockTime = 5 s

Time = 0.028125

Courant Number mean: 0.0382721 max: 0.552646
smoothSolver:  Solving for Ux, Initial residual = 0.0052351, Final residual = 7.72664e-07, No Iterations 3
smoothSolver:  Solving for Uy, Initial residual = 0.00563438, Final residual = 9.72873e-07, No Iterations 3
DICPCG:  Solving for p, Initial residual = 0.00547935, Final residual = 0.000267571, No Iterations 82
time step continuity errors : sum local = 2.02633e-08, global = 3.86649e-20, cumulative = -8.79066e-20
DICPCG:  Solving for p, Initial residual = 0.0020268, Final residual = 9.79058e-07, No Iterations 210
time step continuity errors : sum local = 6.90514e-11, global = 3.23211e-21, cumulative = -8.46745e-20
ExecutionTime = 5.65 s  ClockTime = 6 s

Time = 0.02875

Courant Number mean: 0.0386635 max: 0.553437
smoothSolver:  Solving for Ux, Initial residual = 0.0051153, Final residual = 7.55419e-07, No Iterations 3
smoothSolver:  Solving for Uy, Initial residual = 0.00550818, Final residual = 9.50236e-07, No Iterations 3
DICPCG:  Solving for p, Initial residual = 0.00545073, Final residual = 0.000260486, No Iterations 82
time step continuity errors : sum local = 1.97489e-08, global = 6.46554e-21, cumulative = -7.8209e-20
DICPCG:  Solving for p, Initial residual = 0.00199767, Final residual = 9.69575e-07, No Iterations 210
time step continuity errors : sum local = 6.84725e-11, global = -5.95517e-20, cumulative = -1.37761e-19
ExecutionTime = 5.75 s  ClockTime = 6 s

Time = 0.029375

Courant Number mean: 0.039049 max: 0.554202
smoothSolver:  Solving for Ux, Initial residual = 0.00500082, Final residual = 7.38913e-07, No Iterations 3
smoothSolver:  Solving for Uy, Initial residual = 0.005388, Final residual = 9.28624e-07, No Iterations 3
DICPCG:  Solving for p, Initial residual = 0.00566397, Final residual = 0.000269777, No Iterations 81
time step continuity errors : sum local = 2.03843e-08, global = 1.22043e-20, cumulative = -1.25556e-19
DICPCG:  Solving for p, Initial residual = 0.00197595, Final residual = 9.66971e-07, No Iterations 210
time step continuity errors : sum local = 6.8368e-11, global = 2.00045e-20, cumulative = -1.05552e-19
ExecutionTime = 5.86 s  ClockTime = 6 s

Time = 0.03

Courant Number mean: 0.0394289 max: 0.554942
smoothSolver:  Solving for Ux, Initial residual = 0.00489115, Final residual = 7.2305e-07, No Iterations 3
smoothSolver:  Solving for Uy, Initial residual = 0.00527343, Final residual = 9.07966e-07, No Iterations 3
DICPCG:  Solving for p, Initial residual = 0.00559964, Final residual = 0.000272648, No Iterations 81
time step continuity errors : sum local = 2.05711e-08, global = 2.69778e-20, cumulative = -7.85739e-20
DICPCG:  Solving for p, Initial residual = 0.00196058, Final residual = 9.30579e-07, No Iterations 210
time step continuity errors : sum local = 6.58789e-11, global = 3.51216e-20, cumulative = -4.34524e-20
ExecutionTime = 5.96 s  ClockTime = 6 s

Time = 0.030625

Courant Number mean: 0.0398036 max: 0.555657
smoothSolver:  Solving for Ux, Initial residual = 0.00478627, Final residual = 7.07847e-07, No Iterations 3
smoothSolver:  Solving for Uy, Initial residual = 0.00516353, Final residual = 8.88237e-07, No Iterations 3
DICPCG:  Solving for p, Initial residual = 0.00543344, Final residual = 0.000265426, No Iterations 81
time step continuity errors : sum local = 2.00495e-08, global = 1.57601e-20, cumulative = -2.76923e-20
DICPCG:  Solving for p, Initial residual = 0.00193577, Final residual = 9.27596e-07, No Iterations 210
time step continuity errors : sum local = 6.57448e-11, global = -4.30309e-20, cumulative = -7.07232e-20
ExecutionTime = 6.07 s  ClockTime = 6 s

Time = 0.03125

Courant Number mean: 0.0401727 max: 0.556349
smoothSolver:  Solving for Ux, Initial residual = 0.00468561, Final residual = 6.93346e-07, No Iterations 3
smoothSolver:  Solving for Uy, Initial residual = 0.00505844, Final residual = 8.69363e-07, No Iterations 3
DICPCG:  Solving for p, Initial residual = 0.00515221, Final residual = 0.000238858, No Iterations 82
time step continuity errors : sum local = 1.81628e-08, global = 3.63709e-21, cumulative = -6.70861e-20
DICPCG:  Solving for p, Initial residual = 0.00188799, Final residual = 9.31959e-07, No Iterations 210
time step continuity errors : sum local = 6.61374e-11, global = 7.06926e-21, cumulative = -6.00168e-20
ExecutionTime = 6.17 s  ClockTime = 6 s

Time = 0.031875

Courant Number mean: 0.0405363 max: 0.55702
smoothSolver:  Solving for Ux, Initial residual = 0.00458887, Final residual = 6.7945e-07, No Iterations 3
smoothSolver:  Solving for Uy, Initial residual = 0.00495785, Final residual = 8.51271e-07, No Iterations 3
DICPCG:  Solving for p, Initial residual = 0.00509199, Final residual = 0.00025358, No Iterations 81
time step continuity errors : sum local = 1.91933e-08, global = -7.20034e-20, cumulative = -1.3202e-19
DICPCG:  Solving for p, Initial residual = 0.00187692, Final residual = 9.19296e-07, No Iterations 210
time step continuity errors : sum local = 6.53207e-11, global = -1.28433e-22, cumulative = -1.32149e-19
ExecutionTime = 6.28 s  ClockTime = 6 s

Time = 0.0325

Courant Number mean: 0.0408948 max: 0.55767
smoothSolver:  Solving for Ux, Initial residual = 0.00449586, Final residual = 6.66086e-07, No Iterations 3
smoothSolver:  Solving for Uy, Initial residual = 0.00486165, Final residual = 8.3393e-07, No Iterations 3
DICPCG:  Solving for p, Initial residual = 0.00504272, Final residual = 0.000247447, No Iterations 81
time step continuity errors : sum local = 1.87489e-08, global = 2.03793e-20, cumulative = -1.11769e-19
DICPCG:  Solving for p, Initial residual = 0.00186501, Final residual = 9.1547e-07, No Iterations 210
time step continuity errors : sum local = 6.51263e-11, global = -1.79339e-20, cumulative = -1.29703e-19
ExecutionTime = 6.39 s  ClockTime = 6 s

Time = 0.033125

Courant Number mean: 0.0412481 max: 0.558301
smoothSolver:  Solving for Ux, Initial residual = 0.00440639, Final residual = 6.53273e-07, No Iterations 3
smoothSolver:  Solving for Uy, Initial residual = 0.00476938, Final residual = 8.17304e-07, No Iterations 3
DICPCG:  Solving for p, Initial residual = 0.00498727, Final residual = 0.000243276, No Iterations 81
time step continuity errors : sum local = 1.84454e-08, global = -1.91804e-20, cumulative = -1.48884e-19
DICPCG:  Solving for p, Initial residual = 0.00184474, Final residual = 9.07998e-07, No Iterations 210
time step continuity errors : sum local = 6.46715e-11, global = 7.59168e-21, cumulative = -1.41292e-19
ExecutionTime = 6.49 s  ClockTime = 6 s

Time = 0.03375

Courant Number mean: 0.0415964 max: 0.558913
smoothSolver:  Solving for Ux, Initial residual = 0.00432038, Final residual = 6.40982e-07, No Iterations 3
smoothSolver:  Solving for Uy, Initial residual = 0.00468077, Final residual = 8.01349e-07, No Iterations 3
DICPCG:  Solving for p, Initial residual = 0.00493017, Final residual = 0.000237968, No Iterations 81
time step continuity errors : sum local = 1.80596e-08, global = 5.98131e-20, cumulative = -8.14788e-20
DICPCG:  Solving for p, Initial residual = 0.00182345, Final residual = 9.01266e-07, No Iterations 210
time step continuity errors : sum local = 6.42636e-11, global = -5.25624e-22, cumulative = -8.20044e-20
ExecutionTime = 6.6 s  ClockTime = 6 s

Time = 0.034375

Courant Number mean: 0.0419397 max: 0.559507
smoothSolver:  Solving for Ux, Initial residual = 0.00423825, Final residual = 6.29155e-07, No Iterations 3
smoothSolver:  Solving for Uy, Initial residual = 0.00459551, Final residual = 7.86024e-07, No Iterations 3
DICPCG:  Solving for p, Initial residual = 0.00487087, Final residual = 0.000233302, No Iterations 81
time step continuity errors : sum local = 1.77194e-08, global = -2.20083e-20, cumulative = -1.04013e-19
DICPCG:  Solving for p, Initial residual = 0.0018043, Final residual = 8.94287e-07, No Iterations 210
time step continuity errors : sum local = 6.38341e-11, global = -1.49708e-20, cumulative = -1.18984e-19
ExecutionTime = 6.7 s  ClockTime = 7 s

Time = 0.035

Courant Number mean: 0.0422807 max: 0.560085
smoothSolver:  Solving for Ux, Initial residual = 0.00415931, Final residual = 6.17762e-07, No Iterations 3
smoothSolver:  Solving for Uy, Initial residual = 0.0045138, Final residual = 7.71271e-07, No Iterations 3
DICPCG:  Solving for p, Initial residual = 0.00481393, Final residual = 0.0002282, No Iterations 81
time step continuity errors : sum local = 1.73484e-08, global = -1.03422e-20, cumulative = -1.29326e-19
DICPCG:  Solving for p, Initial residual = 0.00178319, Final residual = 8.86978e-07, No Iterations 210
time step continuity errors : sum local = 6.33806e-11, global = 1.87311e-20, cumulative = -1.10595e-19
ExecutionTime = 6.81 s  ClockTime = 7 s

Time = 0.035625

Courant Number mean: 0.0426189 max: 0.560646
smoothSolver:  Solving for Ux, Initial residual = 0.00408308, Final residual = 6.06759e-07, No Iterations 3
smoothSolver:  Solving for Uy, Initial residual = 0.00443519, Final residual = 7.57068e-07, No Iterations 3
DICPCG:  Solving for p, Initial residual = 0.00477804, Final residual = 0.000238398, No Iterations 80
time step continuity errors : sum local = 1.80666e-08, global = -4.19266e-21, cumulative = -1.14787e-19
DICPCG:  Solving for p, Initial residual = 0.00177972, Final residual = 8.83679e-07, No Iterations 210
time step continuity errors : sum local = 6.32087e-11, global = 7.56748e-21, cumulative = -1.0722e-19
ExecutionTime = 6.91 s  ClockTime = 7 s

Time = 0.03625

Courant Number mean: 0.0429535 max: 0.561193
smoothSolver:  Solving for Ux, Initial residual = 0.00400941, Final residual = 5.96099e-07, No Iterations 3
smoothSolver:  Solving for Uy, Initial residual = 0.00435951, Final residual = 7.43429e-07, No Iterations 3
DICPCG:  Solving for p, Initial residual = 0.00471183, Final residual = 0.000235526, No Iterations 80
time step continuity errors : sum local = 1.78556e-08, global = -2.22249e-21, cumulative = -1.09442e-19
DICPCG:  Solving for p, Initial residual = 0.00177, Final residual = 8.72209e-07, No Iterations 210
time step continuity errors : sum local = 6.24497e-11, global = 2.15439e-20, cumulative = -8.78985e-20
ExecutionTime = 7.02 s  ClockTime = 7 s

Time = 0.036875

Courant Number mean: 0.0432845 max: 0.561724
smoothSolver:  Solving for Ux, Initial residual = 0.00393832, Final residual = 5.8577e-07, No Iterations 3
smoothSolver:  Solving for Uy, Initial residual = 0.00428646, Final residual = 7.30286e-07, No Iterations 3
DICPCG:  Solving for p, Initial residual = 0.00466497, Final residual = 0.00023085, No Iterations 80
time step continuity errors : sum local = 1.75158e-08, global = -4.0024e-20, cumulative = -1.27923e-19
DICPCG:  Solving for p, Initial residual = 0.00175314, Final residual = 8.61495e-07, No Iterations 210
time step continuity errors : sum local = 6.17429e-11, global = -1.88927e-20, cumulative = -1.46815e-19
ExecutionTime = 7.12 s  ClockTime = 7 s

Time = 0.0375

Courant Number mean: 0.0436118 max: 0.562242
smoothSolver:  Solving for Ux, Initial residual = 0.00386955, Final residual = 5.75752e-07, No Iterations 3
smoothSolver:  Solving for Uy, Initial residual = 0.00421623, Final residual = 7.17617e-07, No Iterations 3
DICPCG:  Solving for p, Initial residual = 0.00462589, Final residual = 0.000227152, No Iterations 80
time step continuity errors : sum local = 1.7248e-08, global = -2.6084e-20, cumulative = -1.72899e-19
DICPCG:  Solving for p, Initial residual = 0.00173708, Final residual = 8.49329e-07, No Iterations 210
time step continuity errors : sum local = 6.09448e-11, global = -4.02129e-20, cumulative = -2.13112e-19
ExecutionTime = 7.23 s  ClockTime = 7 s

Time = 0.038125

Courant Number mean: 0.0439354 max: 0.562746
smoothSolver:  Solving for Ux, Initial residual = 0.00380298, Final residual = 5.66051e-07, No Iterations 3
smoothSolver:  Solving for Uy, Initial residual = 0.00414855, Final residual = 7.05387e-07, No Iterations 3
DICPCG:  Solving for p, Initial residual = 0.00459076, Final residual = 0.000224161, No Iterations 80
time step continuity errors : sum local = 1.70328e-08, global = 6.59773e-21, cumulative = -2.06514e-19
DICPCG:  Solving for p, Initial residual = 0.00171987, Final residual = 8.39597e-07, No Iterations 210
time step continuity errors : sum local = 6.03234e-11, global = 2.96992e-20, cumulative = -1.76815e-19
ExecutionTime = 7.33 s  ClockTime = 7 s

Time = 0.03875

Courant Number mean: 0.0442555 max: 0.563237
smoothSolver:  Solving for Ux, Initial residual = 0.00373856, Final residual = 5.56704e-07, No Iterations 3
smoothSolver:  Solving for Uy, Initial residual = 0.00408317, Final residual = 6.9362e-07, No Iterations 3
DICPCG:  Solving for p, Initial residual = 0.00471705, Final residual = 0.000233163, No Iterations 79
time step continuity errors : sum local = 1.76767e-08, global = 5.23833e-20, cumulative = -1.24432e-19
DICPCG:  Solving for p, Initial residual = 0.00170891, Final residual = 9.83431e-07, No Iterations 209
time step continuity errors : sum local = 7.07431e-11, global = -1.71e-20, cumulative = -1.41532e-19
ExecutionTime = 7.44 s  ClockTime = 7 s

Time = 0.039375

Courant Number mean: 0.0445719 max: 0.563716
smoothSolver:  Solving for Ux, Initial residual = 0.00367608, Final residual = 5.47663e-07, No Iterations 3
smoothSolver:  Solving for Uy, Initial residual = 0.00402016, Final residual = 6.82269e-07, No Iterations 3
DICPCG:  Solving for p, Initial residual = 0.00481332, Final residual = 0.000232492, No Iterations 79
time step continuity errors : sum local = 1.76291e-08, global = 2.0124e-21, cumulative = -1.3952e-19
DICPCG:  Solving for p, Initial residual = 0.00170955, Final residual = 9.6412e-07, No Iterations 209
time step continuity errors : sum local = 6.94408e-11, global = -4.10989e-20, cumulative = -1.80618e-19
ExecutionTime = 7.54 s  ClockTime = 7 s

Time = 0.04

Courant Number mean: 0.0448849 max: 0.564184
smoothSolver:  Solving for Ux, Initial residual = 0.00361573, Final residual = 5.38928e-07, No Iterations 3
smoothSolver:  Solving for Uy, Initial residual = 0.00395897, Final residual = 6.71277e-07, No Iterations 3
DICPCG:  Solving for p, Initial residual = 0.0044696, Final residual = 0.000211305, No Iterations 80
time step continuity errors : sum local = 1.61091e-08, global = 8.94908e-22, cumulative = -1.79724e-19
DICPCG:  Solving for p, Initial residual = 0.00165998, Final residual = 9.48409e-07, No Iterations 209
time step continuity errors : sum local = 6.83913e-11, global = 2.92588e-20, cumulative = -1.50465e-19
ExecutionTime = 7.64 s  ClockTime = 8 s

Time = 0.040625

Courant Number mean: 0.0451945 max: 0.56464
smoothSolver:  Solving for Ux, Initial residual = 0.00355719, Final residual = 9.85268e-06, No Iterations 2
smoothSolver:  Solving for Uy, Initial residual = 0.00390022, Final residual = 6.60654e-07, No Iterations 3
DICPCG:  Solving for p, Initial residual = 0.00443017, Final residual = 0.000207718, No Iterations 80
time step continuity errors : sum local = 1.57802e-08, global = -2.66417e-20, cumulative = -1.77106e-19
DICPCG:  Solving for p, Initial residual = 0.00165593, Final residual = 9.22184e-07, No Iterations 209
time step continuity errors : sum local = 6.65864e-11, global = -1.34075e-20, cumulative = -1.90514e-19
ExecutionTime = 7.75 s  ClockTime = 8 s

Time = 0.04125

Courant Number mean: 0.0455004 max: 0.565085
smoothSolver:  Solving for Ux, Initial residual = 0.00350064, Final residual = 9.70128e-06, No Iterations 2
smoothSolver:  Solving for Uy, Initial residual = 0.00384338, Final residual = 6.50381e-07, No Iterations 3
DICPCG:  Solving for p, Initial residual = 0.00439243, Final residual = 0.000204573, No Iterations 80
time step continuity errors : sum local = 1.55818e-08, global = -2.83544e-20, cumulative = -2.18868e-19
DICPCG:  Solving for p, Initial residual = 0.00164217, Final residual = 9.04223e-07, No Iterations 209
time step continuity errors : sum local = 6.53633e-11, global = -1.10403e-20, cumulative = -2.29909e-19
ExecutionTime = 7.85 s  ClockTime = 8 s

Time = 0.041875

Courant Number mean: 0.0458028 max: 0.56552
smoothSolver:  Solving for Ux, Initial residual = 0.00344604, Final residual = 9.55425e-06, No Iterations 2
smoothSolver:  Solving for Uy, Initial residual = 0.00378849, Final residual = 6.40468e-07, No Iterations 3
DICPCG:  Solving for p, Initial residual = 0.00436157, Final residual = 0.000216668, No Iterations 79
time step continuity errors : sum local = 1.64429e-08, global = -4.56103e-20, cumulative = -2.75519e-19
DICPCG:  Solving for p, Initial residual = 0.00163223, Final residual = 8.85907e-07, No Iterations 209
time step continuity errors : sum local = 6.41053e-11, global = -5.49585e-20, cumulative = -3.30477e-19
ExecutionTime = 7.96 s  ClockTime = 8 s

Time = 0.0425

Courant Number mean: 0.0461019 max: 0.565944
smoothSolver:  Solving for Ux, Initial residual = 0.00339316, Final residual = 9.41233e-06, No Iterations 2
smoothSolver:  Solving for Uy, Initial residual = 0.0037353, Final residual = 6.30858e-07, No Iterations 3
DICPCG:  Solving for p, Initial residual = 0.00433161, Final residual = 0.000214151, No Iterations 79
time step continuity errors : sum local = 1.62661e-08, global = 1.21464e-20, cumulative = -3.18331e-19
DICPCG:  Solving for p, Initial residual = 0.00162993, Final residual = 8.62834e-07, No Iterations 209
time step continuity errors : sum local = 6.25021e-11, global = -3.84224e-20, cumulative = -3.56753e-19
ExecutionTime = 8.06 s  ClockTime = 8 s

Time = 0.043125

Courant Number mean: 0.0463977 max: 0.566359
smoothSolver:  Solving for Ux, Initial residual = 0.00334193, Final residual = 9.27461e-06, No Iterations 2
smoothSolver:  Solving for Uy, Initial residual = 0.00368391, Final residual = 6.21565e-07, No Iterations 3
DICPCG:  Solving for p, Initial residual = 0.00429612, Final residual = 0.000210389, No Iterations 79
time step continuity errors : sum local = 1.59956e-08, global = 2.3072e-20, cumulative = -3.33681e-19
DICPCG:  Solving for p, Initial residual = 0.00161644, Final residual = 9.91724e-07, No Iterations 208
time step continuity errors : sum local = 7.19432e-11, global = -1.39833e-20, cumulative = -3.47665e-19
ExecutionTime = 8.16 s  ClockTime = 8 s

Time = 0.04375

Courant Number mean: 0.04669 max: 0.566765
smoothSolver:  Solving for Ux, Initial residual = 0.00329224, Final residual = 9.14055e-06, No Iterations 2
smoothSolver:  Solving for Uy, Initial residual = 0.00363411, Final residual = 6.12559e-07, No Iterations 3
DICPCG:  Solving for p, Initial residual = 0.00425893, Final residual = 0.000207236, No Iterations 79
time step continuity errors : sum local = 1.57711e-08, global = -4.84222e-21, cumulative = -3.52507e-19
DICPCG:  Solving for p, Initial residual = 0.00160388, Final residual = 9.67939e-07, No Iterations 208
time step continuity errors : sum local = 7.02998e-11, global = 1.22996e-20, cumulative = -3.40207e-19
ExecutionTime = 8.27 s  ClockTime = 8 s

Time = 0.044375

Courant Number mean: 0.0469791 max: 0.567162
smoothSolver:  Solving for Ux, Initial residual = 0.00324407, Final residual = 9.00997e-06, No Iterations 2
smoothSolver:  Solving for Uy, Initial residual = 0.00358591, Final residual = 6.03842e-07, No Iterations 3
DICPCG:  Solving for p, Initial residual = 0.00421952, Final residual = 0.000204028, No Iterations 79
time step continuity errors : sum local = 1.55422e-08, global = -2.15584e-20, cumulative = -3.61766e-19
DICPCG:  Solving for p, Initial residual = 0.00159187, Final residual = 9.44374e-07, No Iterations 208
time step continuity errors : sum local = 6.86655e-11, global = -2.56141e-20, cumulative = -3.8738e-19
ExecutionTime = 8.37 s  ClockTime = 8 s

Time = 0.045

Courant Number mean: 0.047265 max: 0.56755
smoothSolver:  Solving for Ux, Initial residual = 0.00319722, Final residual = 8.88268e-06, No Iterations 2
smoothSolver:  Solving for Uy, Initial residual = 0.0035391, Final residual = 5.95391e-07, No Iterations 3
DICPCG:  Solving for p, Initial residual = 0.00418139, Final residual = 0.000200499, No Iterations 79
time step continuity errors : sum local = 1.52893e-08, global = 1.6888e-20, cumulative = -3.70492e-19
DICPCG:  Solving for p, Initial residual = 0.00157843, Final residual = 9.23502e-07, No Iterations 208
time step continuity errors : sum local = 6.72216e-11, global = 6.44182e-20, cumulative = -3.06074e-19
ExecutionTime = 8.47 s  ClockTime = 8 s

Time = 0.045625

Courant Number mean: 0.047548 max: 0.56793
smoothSolver:  Solving for Ux, Initial residual = 0.00315168, Final residual = 8.75856e-06, No Iterations 2
smoothSolver:  Solving for Uy, Initial residual = 0.00349367, Final residual = 5.87193e-07, No Iterations 3
DICPCG:  Solving for p, Initial residual = 0.00415133, Final residual = 0.000198818, No Iterations 79
time step continuity errors : sum local = 1.517e-08, global = 3.11702e-20, cumulative = -2.74903e-19
DICPCG:  Solving for p, Initial residual = 0.00156958, Final residual = 9.8955e-07, No Iterations 207
time step continuity errors : sum local = 7.21276e-11, global = 8.2526e-20, cumulative = -1.92377e-19
ExecutionTime = 8.58 s  ClockTime = 8 s

Time = 0.04625

Courant Number mean: 0.0478296 max: 0.568301
smoothSolver:  Solving for Ux, Initial residual = 0.0031073, Final residual = 8.63742e-06, No Iterations 2
smoothSolver:  Solving for Uy, Initial residual = 0.00344971, Final residual = 5.7923e-07, No Iterations 3
DICPCG:  Solving for p, Initial residual = 0.00412056, Final residual = 0.000195207, No Iterations 79
time step continuity errors : sum local = 1.49101e-08, global = 1.88904e-20, cumulative = -1.73487e-19
DICPCG:  Solving for p, Initial residual = 0.0015577, Final residual = 9.62461e-07, No Iterations 207
time step continuity errors : sum local = 7.02217e-11, global = 3.64168e-20, cumulative = -1.3707e-19
ExecutionTime = 8.68 s  ClockTime = 9 s

Time = 0.046875

Courant Number mean: 0.0481094 max: 0.568665
smoothSolver:  Solving for Ux, Initial residual = 0.00306406, Final residual = 8.51899e-06, No Iterations 2
smoothSolver:  Solving for Uy, Initial residual = 0.00340703, Final residual = 5.71513e-07, No Iterations 3
DICPCG:  Solving for p, Initial residual = 0.00409451, Final residual = 0.000204504, No Iterations 78
time step continuity errors : sum local = 1.55874e-08, global = -2.54612e-20, cumulative = -1.62531e-19
DICPCG:  Solving for p, Initial residual = 0.00154742, Final residual = 9.87844e-07, No Iterations 206
time step continuity errors : sum local = 7.21511e-11, global = -1.29018e-21, cumulative = -1.63821e-19
ExecutionTime = 8.78 s  ClockTime = 9 s

Time = 0.0475

Courant Number mean: 0.0483869 max: 0.569022
smoothSolver:  Solving for Ux, Initial residual = 0.00302189, Final residual = 8.40365e-06, No Iterations 2
smoothSolver:  Solving for Uy, Initial residual = 0.00336552, Final residual = 5.64027e-07, No Iterations 3
DICPCG:  Solving for p, Initial residual = 0.00419776, Final residual = 0.000202463, No Iterations 78
time step continuity errors : sum local = 1.54414e-08, global = -5.51815e-21, cumulative = -1.6934e-19
DICPCG:  Solving for p, Initial residual = 0.0015487, Final residual = 9.53398e-07, No Iterations 206
time step continuity errors : sum local = 6.96983e-11, global = 2.64294e-20, cumulative = -1.4291e-19
ExecutionTime = 8.88 s  ClockTime = 9 s

Time = 0.048125

Courant Number mean: 0.0486622 max: 0.569371
smoothSolver:  Solving for Ux, Initial residual = 0.00298073, Final residual = 8.29185e-06, No Iterations 2
smoothSolver:  Solving for Uy, Initial residual = 0.00332529, Final residual = 5.56759e-07, No Iterations 3
DICPCG:  Solving for p, Initial residual = 0.00418606, Final residual = 0.000205995, No Iterations 77
time step continuity errors : sum local = 1.57006e-08, global = -5.0795e-20, cumulative = -1.93705e-19
DICPCG:  Solving for p, Initial residual = 0.00153867, Final residual = 9.21828e-07, No Iterations 206
time step continuity errors : sum local = 6.74517e-11, global = -5.88123e-20, cumulative = -2.52517e-19
ExecutionTime = 8.99 s  ClockTime = 9 s

Time = 0.04875

Courant Number mean: 0.0489352 max: 0.569714
smoothSolver:  Solving for Ux, Initial residual = 0.0029406, Final residual = 8.18363e-06, No Iterations 2
smoothSolver:  Solving for Uy, Initial residual = 0.00328612, Final residual = 9.93086e-06, No Iterations 2
DICPCG:  Solving for p, Initial residual = 0.00401986, Final residual = 0.000200827, No Iterations 77
time step continuity errors : sum local = 1.53599e-08, global = 2.48962e-20, cumulative = -2.27621e-19
DICPCG:  Solving for p, Initial residual = 0.00152802, Final residual = 9.22195e-07, No Iterations 206
time step continuity errors : sum local = 6.75329e-11, global = -3.19127e-21, cumulative = -2.30813e-19
ExecutionTime = 9.09 s  ClockTime = 9 s

Time = 0.049375

Courant Number mean: 0.0492057 max: 0.570049
smoothSolver:  Solving for Ux, Initial residual = 0.00290162, Final residual = 8.07848e-06, No Iterations 2
smoothSolver:  Solving for Uy, Initial residual = 0.00324832, Final residual = 9.80975e-06, No Iterations 2
DICPCG:  Solving for p, Initial residual = 0.00399501, Final residual = 0.000197219, No Iterations 77
time step continuity errors : sum local = 1.50857e-08, global = -3.33918e-20, cumulative = -2.64204e-19
DICPCG:  Solving for p, Initial residual = 0.00151547, Final residual = 9.06236e-07, No Iterations 206
time step continuity errors : sum local = 6.64194e-11, global = -2.23316e-20, cumulative = -2.86536e-19
ExecutionTime = 9.19 s  ClockTime = 9 s

Time = 0.05

Courant Number mean: 0.0494739 max: 0.570378
smoothSolver:  Solving for Ux, Initial residual = 0.00286378, Final residual = 7.97583e-06, No Iterations 2
smoothSolver:  Solving for Uy, Initial residual = 0.00321148, Final residual = 9.69188e-06, No Iterations 2
DICPCG:  Solving for p, Initial residual = 0.00397336, Final residual = 0.000194238, No Iterations 77
time step continuity errors : sum local = 1.48763e-08, global = -3.00599e-21, cumulative = -2.89542e-19
DICPCG:  Solving for p, Initial residual = 0.00150322, Final residual = 8.91775e-07, No Iterations 206
time step continuity errors : sum local = 6.54178e-11, global = -1.80151e-21, cumulative = -2.91344e-19
ExecutionTime = 9.29 s  ClockTime = 9 s

Time = 0.050625

Courant Number mean: 0.0497398 max: 0.570701
smoothSolver:  Solving for Ux, Initial residual = 0.00282691, Final residual = 7.87552e-06, No Iterations 2
smoothSolver:  Solving for Uy, Initial residual = 0.00317561, Final residual = 9.57699e-06, No Iterations 2
DICPCG:  Solving for p, Initial residual = 0.00394739, Final residual = 0.000191106, No Iterations 77
time step continuity errors : sum local = 1.46491e-08, global = 2.1852e-20, cumulative = -2.69491e-19
DICPCG:  Solving for p, Initial residual = 0.00149204, Final residual = 9.88774e-07, No Iterations 205
time step continuity errors : sum local = 7.2615e-11, global = -3.19002e-20, cumulative = -3.01392e-19
ExecutionTime = 9.39 s  ClockTime = 9 s

Time = 0.05125

Courant Number mean: 0.0500034 max: 0.571018
smoothSolver:  Solving for Ux, Initial residual = 0.00279101, Final residual = 7.77745e-06, No Iterations 2
smoothSolver:  Solving for Uy, Initial residual = 0.00314084, Final residual = 9.46518e-06, No Iterations 2
DICPCG:  Solving for p, Initial residual = 0.00392095, Final residual = 0.000188248, No Iterations 77
time step continuity errors : sum local = 1.44447e-08, global = 3.13551e-20, cumulative = -2.70037e-19
DICPCG:  Solving for p, Initial residual = 0.00148153, Final residual = 9.74441e-07, No Iterations 205
time step continuity errors : sum local = 7.16246e-11, global = 1.47794e-20, cumulative = -2.55257e-19
ExecutionTime = 9.5 s  ClockTime = 9 s

Time = 0.051875

Courant Number mean: 0.0502644 max: 0.571329
smoothSolver:  Solving for Ux, Initial residual = 0.00275602, Final residual = 7.68154e-06, No Iterations 2
smoothSolver:  Solving for Uy, Initial residual = 0.0031071, Final residual = 9.35674e-06, No Iterations 2
DICPCG:  Solving for p, Initial residual = 0.00389361, Final residual = 0.000185269, No Iterations 77
time step continuity errors : sum local = 1.42302e-08, global = -5.32255e-21, cumulative = -2.6058e-19
DICPCG:  Solving for p, Initial residual = 0.00147169, Final residual = 9.60782e-07, No Iterations 205
time step continuity errors : sum local = 7.06818e-11, global = 6.07453e-21, cumulative = -2.54505e-19
ExecutionTime = 9.6 s  ClockTime = 10 s

Time = 0.0525

Courant Number mean: 0.0505231 max: 0.571634
smoothSolver:  Solving for Ux, Initial residual = 0.00272189, Final residual = 7.58772e-06, No Iterations 2
smoothSolver:  Solving for Uy, Initial residual = 0.00307416, Final residual = 9.25112e-06, No Iterations 2
DICPCG:  Solving for p, Initial residual = 0.00387526, Final residual = 0.000183699, No Iterations 77
time step continuity errors : sum local = 1.41192e-08, global = 5.5312e-21, cumulative = -2.48974e-19
DICPCG:  Solving for p, Initial residual = 0.00146196, Final residual = 9.47022e-07, No Iterations 205
time step continuity errors : sum local = 6.97329e-11, global = 4.18464e-21, cumulative = -2.44789e-19
ExecutionTime = 9.7 s  ClockTime = 10 s

Time = 0.053125

Courant Number mean: 0.0507795 max: 0.571933
smoothSolver:  Solving for Ux, Initial residual = 0.00268855, Final residual = 7.49594e-06, No Iterations 2
smoothSolver:  Solving for Uy, Initial residual = 0.00304202, Final residual = 9.14816e-06, No Iterations 2
DICPCG:  Solving for p, Initial residual = 0.00385551, Final residual = 0.000181556, No Iterations 77
time step continuity errors : sum local = 1.3966e-08, global = -1.93982e-20, cumulative = -2.64188e-19
DICPCG:  Solving for p, Initial residual = 0.00145218, Final residual = 9.50532e-07, No Iterations 205
time step continuity errors : sum local = 7.00421e-11, global = -1.01666e-19, cumulative = -3.65853e-19
ExecutionTime = 9.8 s  ClockTime = 10 s

Time = 0.05375

Courant Number mean: 0.0510337 max: 0.572227
smoothSolver:  Solving for Ux, Initial residual = 0.00265602, Final residual = 7.40615e-06, No Iterations 2
smoothSolver:  Solving for Uy, Initial residual = 0.00301083, Final residual = 9.0482e-06, No Iterations 2
DICPCG:  Solving for p, Initial residual = 0.00381256, Final residual = 0.000189391, No Iterations 76
time step continuity errors : sum local = 1.45462e-08, global = -2.78908e-20, cumulative = -3.93744e-19
DICPCG:  Solving for p, Initial residual = 0.00144927, Final residual = 9.2124e-07, No Iterations 205
time step continuity errors : sum local = 6.79349e-11, global = -1.11902e-20, cumulative = -4.04935e-19
ExecutionTime = 9.9 s  ClockTime = 10 s

Time = 0.054375

Courant Number mean: 0.0512854 max: 0.572516
smoothSolver:  Solving for Ux, Initial residual = 0.00262425, Final residual = 7.31824e-06, No Iterations 2
smoothSolver:  Solving for Uy, Initial residual = 0.00298048, Final residual = 8.95106e-06, No Iterations 2
DICPCG:  Solving for p, Initial residual = 0.00379011, Final residual = 0.000186598, No Iterations 76
time step continuity errors : sum local = 1.43445e-08, global = -2.11653e-20, cumulative = -4.261e-19
DICPCG:  Solving for p, Initial residual = 0.00144746, Final residual = 9.12145e-07, No Iterations 205
time step continuity errors : sum local = 6.73161e-11, global = 1.78279e-20, cumulative = -4.08272e-19
ExecutionTime = 10.01 s  ClockTime = 10 s

Time = 0.055

Courant Number mean: 0.0515348 max: 0.5728
smoothSolver:  Solving for Ux, Initial residual = 0.00259324, Final residual = 7.23269e-06, No Iterations 2
smoothSolver:  Solving for Uy, Initial residual = 0.00295084, Final residual = 8.85636e-06, No Iterations 2
DICPCG:  Solving for p, Initial residual = 0.00376761, Final residual = 0.000183876, No Iterations 76
time step continuity errors : sum local = 1.41488e-08, global = 2.49114e-21, cumulative = -4.05781e-19
DICPCG:  Solving for p, Initial residual = 0.0014381, Final residual = 9.02094e-07, No Iterations 205
time step continuity errors : sum local = 6.66375e-11, global = 3.16568e-21, cumulative = -4.02615e-19
ExecutionTime = 10.11 s  ClockTime = 10 s

Time = 0.055625

Courant Number mean: 0.0517821 max: 0.573079
smoothSolver:  Solving for Ux, Initial residual = 0.00256292, Final residual = 7.14963e-06, No Iterations 2
smoothSolver:  Solving for Uy, Initial residual = 0.00292193, Final residual = 8.76412e-06, No Iterations 2
DICPCG:  Solving for p, Initial residual = 0.00374609, Final residual = 0.000181886, No Iterations 76
time step continuity errors : sum local = 1.40068e-08, global = -1.71195e-20, cumulative = -4.19735e-19
DICPCG:  Solving for p, Initial residual = 0.00142876, Final residual = 8.9628e-07, No Iterations 205
time step continuity errors : sum local = 6.62812e-11, global = -1.52045e-20, cumulative = -4.34939e-19
ExecutionTime = 10.21 s  ClockTime = 10 s

Time = 0.05625

Courant Number mean: 0.0520273 max: 0.573353
smoothSolver:  Solving for Ux, Initial residual = 0.00253329, Final residual = 7.06823e-06, No Iterations 2
smoothSolver:  Solving for Uy, Initial residual = 0.00289382, Final residual = 8.67418e-06, No Iterations 2
DICPCG:  Solving for p, Initial residual = 0.00372953, Final residual = 0.000179464, No Iterations 76
time step continuity errors : sum local = 1.38334e-08, global = -2.92839e-20, cumulative = -4.64223e-19
DICPCG:  Solving for p, Initial residual = 0.00142114, Final residual = 8.88249e-07, No Iterations 205
time step continuity errors : sum local = 6.5762e-11, global = 5.44987e-20, cumulative = -4.09724e-19
ExecutionTime = 10.31 s  ClockTime = 10 s

Time = 0.056875

Courant Number mean: 0.0522703 max: 0.573622
smoothSolver:  Solving for Ux, Initial residual = 0.00250429, Final residual = 6.98891e-06, No Iterations 2
smoothSolver:  Solving for Uy, Initial residual = 0.00286647, Final residual = 8.58658e-06, No Iterations 2
DICPCG:  Solving for p, Initial residual = 0.00370769, Final residual = 0.000177371, No Iterations 76
time step continuity errors : sum local = 1.36843e-08, global = 1.02169e-20, cumulative = -3.99507e-19
DICPCG:  Solving for p, Initial residual = 0.00141192, Final residual = 9.91033e-07, No Iterations 204
time step continuity errors : sum local = 7.34412e-11, global = -1.14071e-20, cumulative = -4.10914e-19
ExecutionTime = 10.41 s  ClockTime = 10 s

Time = 0.0575

Courant Number mean: 0.0525113 max: 0.573887
smoothSolver:  Solving for Ux, Initial residual = 0.00247587, Final residual = 6.9114e-06, No Iterations 2
smoothSolver:  Solving for Uy, Initial residual = 0.00283982, Final residual = 8.50102e-06, No Iterations 2
DICPCG:  Solving for p, Initial residual = 0.00369078, Final residual = 0.000176408, No Iterations 76
time step continuity errors : sum local = 1.36188e-08, global = 3.70566e-20, cumulative = -3.73858e-19
DICPCG:  Solving for p, Initial residual = 0.00140438, Final residual = 9.79248e-07, No Iterations 204
time step continuity errors : sum local = 7.26426e-11, global = -1.5744e-20, cumulative = -3.89602e-19
ExecutionTime = 10.51 s  ClockTime = 10 s

Time = 0.058125

Courant Number mean: 0.05275 max: 0.574148
smoothSolver:  Solving for Ux, Initial residual = 0.00244812, Final residual = 6.83558e-06, No Iterations 2
smoothSolver:  Solving for Uy, Initial residual = 0.00281375, Final residual = 8.41759e-06, No Iterations 2
DICPCG:  Solving for p, Initial residual = 0.00367103, Final residual = 0.000173986, No Iterations 76
time step continuity errors : sum local = 1.34447e-08, global = 2.30835e-20, cumulative = -3.66518e-19
DICPCG:  Solving for p, Initial residual = 0.00139513, Final residual = 9.6516e-07, No Iterations 204
time step continuity errors : sum local = 7.16701e-11, global = -1.31291e-20, cumulative = -3.79647e-19
ExecutionTime = 10.61 s  ClockTime = 11 s

Time = 0.05875

Courant Number mean: 0.0529867 max: 0.574404
smoothSolver:  Solving for Ux, Initial residual = 0.00242105, Final residual = 6.76128e-06, No Iterations 2
smoothSolver:  Solving for Uy, Initial residual = 0.0027883, Final residual = 8.33628e-06, No Iterations 2
DICPCG:  Solving for p, Initial residual = 0.00365269, Final residual = 0.000172117, No Iterations 76
time step continuity errors : sum local = 1.33111e-08, global = 5.1804e-20, cumulative = -3.27843e-19
DICPCG:  Solving for p, Initial residual = 0.00138676, Final residual = 9.47697e-07, No Iterations 204
time step continuity errors : sum local = 7.04407e-11, global = 2.23238e-20, cumulative = -3.0552e-19
ExecutionTime = 10.71 s  ClockTime = 11 s

Time = 0.059375

Courant Number mean: 0.0532218 max: 0.574656
smoothSolver:  Solving for Ux, Initial residual = 0.00239465, Final residual = 6.68845e-06, No Iterations 2
smoothSolver:  Solving for Uy, Initial residual = 0.00276357, Final residual = 8.25687e-06, No Iterations 2
DICPCG:  Solving for p, Initial residual = 0.00363166, Final residual = 0.000170756, No Iterations 76
time step continuity errors : sum local = 1.32148e-08, global = 1.68832e-20, cumulative = -2.88636e-19
DICPCG:  Solving for p, Initial residual = 0.0013778, Final residual = 9.32979e-07, No Iterations 204
time step continuity errors : sum local = 6.94087e-11, global = -4.39096e-20, cumulative = -3.32546e-19
ExecutionTime = 10.81 s  ClockTime = 11 s

Time = 0.06

Courant Number mean: 0.0534562 max: 0.574904
smoothSolver:  Solving for Ux, Initial residual = 0.00236879, Final residual = 6.61695e-06, No Iterations 2
smoothSolver:  Solving for Uy, Initial residual = 0.00273941, Final residual = 8.17916e-06, No Iterations 2
DICPCG:  Solving for p, Initial residual = 0.00361374, Final residual = 0.000169233, No Iterations 76
time step continuity errors : sum local = 1.3106e-08, global = -2.57617e-20, cumulative = -3.58308e-19
DICPCG:  Solving for p, Initial residual = 0.00136984, Final residual = 9.97642e-07, No Iterations 203
time step continuity errors : sum local = 7.42868e-11, global = 2.694e-20, cumulative = -3.31368e-19
ExecutionTime = 10.91 s  ClockTime = 11 s

Time = 0.060625

Courant Number mean: 0.0536892 max: 0.575149
smoothSolver:  Solving for Ux, Initial residual = 0.00234345, Final residual = 6.54675e-06, No Iterations 2
smoothSolver:  Solving for Uy, Initial residual = 0.00271585, Final residual = 8.10354e-06, No Iterations 2
DICPCG:  Solving for p, Initial residual = 0.00360349, Final residual = 0.000167517, No Iterations 76
time step continuity errors : sum local = 1.29829e-08, global = -2.0444e-20, cumulative = -3.51812e-19
DICPCG:  Solving for p, Initial residual = 0.00136234, Final residual = 9.73475e-07, No Iterations 203
time step continuity errors : sum local = 7.2547e-11, global = 3.84994e-20, cumulative = -3.13312e-19
ExecutionTime = 11.01 s  ClockTime = 11 s

Time = 0.06125

Courant Number mean: 0.0539208 max: 0.575399
smoothSolver:  Solving for Ux, Initial residual = 0.00231866, Final residual = 6.47788e-06, No Iterations 2
smoothSolver:  Solving for Uy, Initial residual = 0.00269282, Final residual = 8.02979e-06, No Iterations 2
DICPCG:  Solving for p, Initial residual = 0.0036435, Final residual = 0.00017886, No Iterations 75
time step continuity errors : sum local = 1.38296e-08, global = -5.57677e-20, cumulative = -3.6908e-19
DICPCG:  Solving for p, Initial residual = 0.00136355, Final residual = 9.95965e-07, No Iterations 202
time step continuity errors : sum local = 7.42978e-11, global = 5.07286e-20, cumulative = -3.18351e-19
ExecutionTime = 11.11 s  ClockTime = 11 s

Time = 0.061875

Courant Number mean: 0.0541508 max: 0.57569
smoothSolver:  Solving for Ux, Initial residual = 0.00229438, Final residual = 6.41098e-06, No Iterations 2
smoothSolver:  Solving for Uy, Initial residual = 0.0026704, Final residual = 7.9577e-06, No Iterations 2
DICPCG:  Solving for p, Initial residual = 0.00358237, Final residual = 0.000177352, No Iterations 75
time step continuity errors : sum local = 1.37229e-08, global = 2.41788e-20, cumulative = -2.94173e-19
DICPCG:  Solving for p, Initial residual = 0.00136535, Final residual = 9.55169e-07, No Iterations 202
time step continuity errors : sum local = 7.13267e-11, global = -5.48923e-20, cumulative = -3.49065e-19
ExecutionTime = 11.21 s  ClockTime = 11 s

Time = 0.0625

Courant Number mean: 0.0543792 max: 0.575978
smoothSolver:  Solving for Ux, Initial residual = 0.00227065, Final residual = 6.34561e-06, No Iterations 2
smoothSolver:  Solving for Uy, Initial residual = 0.00264851, Final residual = 7.88724e-06, No Iterations 2
DICPCG:  Solving for p, Initial residual = 0.00359863, Final residual = 0.00017506, No Iterations 75
time step continuity errors : sum local = 1.35577e-08, global = 2.68636e-20, cumulative = -3.22201e-19
DICPCG:  Solving for p, Initial residual = 0.00135895, Final residual = 9.76061e-07, No Iterations 201
time step continuity errors : sum local = 7.29573e-11, global = 7.864e-20, cumulative = -2.43561e-19
ExecutionTime = 11.31 s  ClockTime = 11 s

Time = 0.063125

Courant Number mean: 0.0546059 max: 0.576261
smoothSolver:  Solving for Ux, Initial residual = 0.00224739, Final residual = 6.28144e-06, No Iterations 2
smoothSolver:  Solving for Uy, Initial residual = 0.00262711, Final residual = 7.81836e-06, No Iterations 2
DICPCG:  Solving for p, Initial residual = 0.00353419, Final residual = 0.000174382, No Iterations 75
time step continuity errors : sum local = 1.35129e-08, global = 6.91929e-20, cumulative = -1.74368e-19
DICPCG:  Solving for p, Initial residual = 0.00135112, Final residual = 9.97927e-07, No Iterations 200
time step continuity errors : sum local = 7.46819e-11, global = -2.31165e-20, cumulative = -1.97485e-19
ExecutionTime = 11.41 s  ClockTime = 11 s

Time = 0.06375

Courant Number mean: 0.0548311 max: 0.576539
smoothSolver:  Solving for Ux, Initial residual = 0.00222457, Final residual = 6.21832e-06, No Iterations 2
smoothSolver:  Solving for Uy, Initial residual = 0.00260619, Final residual = 7.75118e-06, No Iterations 2
DICPCG:  Solving for p, Initial residual = 0.00380425, Final residual = 0.000185044, No Iterations 74
time step continuity errors : sum local = 1.43151e-08, global = 2.87302e-20, cumulative = -1.68755e-19
DICPCG:  Solving for p, Initial residual = 0.00135081, Final residual = 9.88216e-07, No Iterations 196
time step continuity errors : sum local = 7.41127e-11, global = 6.31585e-20, cumulative = -1.05596e-19
ExecutionTime = 11.51 s  ClockTime = 11 s

Time = 0.064375

Courant Number mean: 0.0550546 max: 0.576814
smoothSolver:  Solving for Ux, Initial residual = 0.00220215, Final residual = 6.15616e-06, No Iterations 2
smoothSolver:  Solving for Uy, Initial residual = 0.00258583, Final residual = 7.68575e-06, No Iterations 2
DICPCG:  Solving for p, Initial residual = 0.00367988, Final residual = 0.000171895, No Iterations 75
time step continuity errors : sum local = 1.33398e-08, global = 3.92401e-21, cumulative = -1.01672e-19
DICPCG:  Solving for p, Initial residual = 0.00133864, Final residual = 9.71965e-07, No Iterations 197
time step continuity errors : sum local = 7.29344e-11, global = 1.76377e-20, cumulative = -8.40345e-20
ExecutionTime = 11.61 s  ClockTime = 12 s

Time = 0.065

Courant Number mean: 0.0552766 max: 0.577085
smoothSolver:  Solving for Ux, Initial residual = 0.00218021, Final residual = 6.09511e-06, No Iterations 2
smoothSolver:  Solving for Uy, Initial residual = 0.00256575, Final residual = 7.62145e-06, No Iterations 2
DICPCG:  Solving for p, Initial residual = 0.00346349, Final residual = 0.000168555, No Iterations 75
time step continuity errors : sum local = 1.30976e-08, global = -2.30282e-20, cumulative = -1.07063e-19
DICPCG:  Solving for p, Initial residual = 0.00132809, Final residual = 9.69463e-07, No Iterations 197
time step continuity errors : sum local = 7.28159e-11, global = 7.12817e-21, cumulative = -9.99345e-20
ExecutionTime = 11.71 s  ClockTime = 12 s

Time = 0.065625

Courant Number mean: 0.0554969 max: 0.577352
smoothSolver:  Solving for Ux, Initial residual = 0.00215855, Final residual = 6.03491e-06, No Iterations 2
smoothSolver:  Solving for Uy, Initial residual = 0.00254627, Final residual = 7.55887e-06, No Iterations 2
DICPCG:  Solving for p, Initial residual = 0.00343713, Final residual = 0.000167499, No Iterations 75
time step continuity errors : sum local = 1.30257e-08, global = 9.72422e-21, cumulative = -9.02103e-20
DICPCG:  Solving for p, Initial residual = 0.00132201, Final residual = 9.93616e-07, No Iterations 196
time step continuity errors : sum local = 7.47104e-11, global = 4.8463e-20, cumulative = -4.17472e-20
ExecutionTime = 11.8 s  ClockTime = 12 s

Time = 0.06625

Courant Number mean: 0.0557157 max: 0.577614
smoothSolver:  Solving for Ux, Initial residual = 0.00213726, Final residual = 5.97573e-06, No Iterations 2
smoothSolver:  Solving for Uy, Initial residual = 0.00252722, Final residual = 7.49773e-06, No Iterations 2
DICPCG:  Solving for p, Initial residual = 0.00342367, Final residual = 0.000166472, No Iterations 75
time step continuity errors : sum local = 1.29556e-08, global = -8.41793e-21, cumulative = -5.01652e-20
DICPCG:  Solving for p, Initial residual = 0.00131666, Final residual = 9.74086e-07, No Iterations 196
time step continuity errors : sum local = 7.33104e-11, global = 3.90957e-21, cumulative = -4.62556e-20
ExecutionTime = 11.9 s  ClockTime = 12 s

Time = 0.066875

Courant Number mean: 0.0559332 max: 0.577874
smoothSolver:  Solving for Ux, Initial residual = 0.00211635, Final residual = 5.9179e-06, No Iterations 2
smoothSolver:  Solving for Uy, Initial residual = 0.00250856, Final residual = 7.43804e-06, No Iterations 2
DICPCG:  Solving for p, Initial residual = 0.00341114, Final residual = 0.000165379, No Iterations 75
time step continuity errors : sum local = 1.288e-08, global = -1.54618e-20, cumulative = -6.17174e-20
DICPCG:  Solving for p, Initial residual = 0.00130953, Final residual = 9.99319e-07, No Iterations 195
time step continuity errors : sum local = 7.52889e-11, global = 3.10084e-20, cumulative = -3.0709e-20
ExecutionTime = 12 s  ClockTime = 12 s

Time = 0.0675

Courant Number mean: 0.0561491 max: 0.578129
smoothSolver:  Solving for Ux, Initial residual = 0.00209583, Final residual = 5.86119e-06, No Iterations 2
smoothSolver:  Solving for Uy, Initial residual = 0.0024903, Final residual = 7.37951e-06, No Iterations 2
DICPCG:  Solving for p, Initial residual = 0.00339749, Final residual = 0.000163815, No Iterations 75
time step continuity errors : sum local = 1.27686e-08, global = 1.17769e-20, cumulative = -1.89321e-20
DICPCG:  Solving for p, Initial residual = 0.00130266, Final residual = 9.77179e-07, No Iterations 195
time step continuity errors : sum local = 7.36855e-11, global = -4.62698e-20, cumulative = -6.52019e-20
ExecutionTime = 12.09 s  ClockTime = 12 s

Time = 0.068125

Courant Number mean: 0.0563634 max: 0.578381
smoothSolver:  Solving for Ux, Initial residual = 0.00207585, Final residual = 5.80585e-06, No Iterations 2
smoothSolver:  Solving for Uy, Initial residual = 0.00247244, Final residual = 7.32213e-06, No Iterations 2
[...]
time step continuity errors : sum local = 1.15936e-10, global = -1.41673e-20, cumulative = 4.27837e-18
ExecutionTime = 305.86 s  ClockTime = 310 s

Time = 2.98375

Courant Number mean: 0.171946 max: 0.610334
smoothSolver:  Solving for Ux, Initial residual = 2.13517e-06, Final residual = 2.13517e-06, No Iterations 0
smoothSolver:  Solving for Uy, Initial residual = 3.91344e-06, Final residual = 3.91344e-06, No Iterations 0
DICPCG:  Solving for p, Initial residual = 2.66859e-06, Final residual = 9.93434e-07, No Iterations 21
time step continuity errors : sum local = 1.23989e-10, global = 4.35607e-20, cumulative = 4.32193e-18
DICPCG:  Solving for p, Initial residual = 1.69625e-06, Final residual = 9.9409e-07, No Iterations 16
time step continuity errors : sum local = 1.23869e-10, global = -8.37615e-20, cumulative = 4.23817e-18
ExecutionTime = 305.88 s  ClockTime = 311 s

Time = 2.98437

Courant Number mean: 0.171946 max: 0.610334
smoothSolver:  Solving for Ux, Initial residual = 2.13329e-06, Final residual = 2.13329e-06, No Iterations 0
smoothSolver:  Solving for Uy, Initial residual = 3.91012e-06, Final residual = 3.91012e-06, No Iterations 0
DICPCG:  Solving for p, Initial residual = 2.65328e-06, Final residual = 9.59902e-07, No Iterations 56
time step continuity errors : sum local = 1.21559e-10, global = -3.66126e-20, cumulative = 4.20155e-18
DICPCG:  Solving for p, Initial residual = 1.66684e-06, Final residual = 9.97487e-07, No Iterations 17
time step continuity errors : sum local = 1.25894e-10, global = 1.0632e-20, cumulative = 4.21219e-18
ExecutionTime = 305.91 s  ClockTime = 311 s

Time = 2.985

Courant Number mean: 0.171946 max: 0.610334
smoothSolver:  Solving for Ux, Initial residual = 2.13169e-06, Final residual = 2.13169e-06, No Iterations 0
smoothSolver:  Solving for Uy, Initial residual = 3.90656e-06, Final residual = 3.90656e-06, No Iterations 0
DICPCG:  Solving for p, Initial residual = 2.84387e-06, Final residual = 8.55277e-07, No Iterations 59
time step continuity errors : sum local = 1.07158e-10, global = -7.09704e-20, cumulative = 4.14122e-18
DICPCG:  Solving for p, Initial residual = 1.61151e-06, Final residual = 9.93964e-07, No Iterations 18
time step continuity errors : sum local = 1.21901e-10, global = -7.6578e-20, cumulative = 4.06464e-18
ExecutionTime = 305.94 s  ClockTime = 311 s

Time = 2.98562

Courant Number mean: 0.171947 max: 0.610334
smoothSolver:  Solving for Ux, Initial residual = 2.12975e-06, Final residual = 2.12975e-06, No Iterations 0
smoothSolver:  Solving for Uy, Initial residual = 3.90462e-06, Final residual = 3.90462e-06, No Iterations 0
DICPCG:  Solving for p, Initial residual = 2.80385e-06, Final residual = 8.42038e-07, No Iterations 58
time step continuity errors : sum local = 1.05092e-10, global = 3.03088e-20, cumulative = 4.09495e-18
DICPCG:  Solving for p, Initial residual = 1.63099e-06, Final residual = 9.58008e-07, No Iterations 17
time step continuity errors : sum local = 1.17729e-10, global = -8.45945e-20, cumulative = 4.01035e-18
ExecutionTime = 305.98 s  ClockTime = 311 s

Time = 2.98625

Courant Number mean: 0.171947 max: 0.610334
smoothSolver:  Solving for Ux, Initial residual = 2.12796e-06, Final residual = 2.12796e-06, No Iterations 0
smoothSolver:  Solving for Uy, Initial residual = 3.90022e-06, Final residual = 3.90022e-06, No Iterations 0
DICPCG:  Solving for p, Initial residual = 2.78502e-06, Final residual = 9.66122e-07, No Iterations 21
time step continuity errors : sum local = 1.18399e-10, global = -2.6384e-20, cumulative = 3.98397e-18
DICPCG:  Solving for p, Initial residual = 1.6471e-06, Final residual = 9.37861e-07, No Iterations 15
time step continuity errors : sum local = 1.14863e-10, global = 3.98843e-20, cumulative = 4.02385e-18
ExecutionTime = 306 s  ClockTime = 311 s

Time = 2.98687

Courant Number mean: 0.171947 max: 0.610334
smoothSolver:  Solving for Ux, Initial residual = 2.12659e-06, Final residual = 2.12659e-06, No Iterations 0
smoothSolver:  Solving for Uy, Initial residual = 3.89718e-06, Final residual = 3.89718e-06, No Iterations 0
DICPCG:  Solving for p, Initial residual = 2.76102e-06, Final residual = 9.67564e-07, No Iterations 20
time step continuity errors : sum local = 1.17669e-10, global = -5.5076e-20, cumulative = 3.96878e-18
DICPCG:  Solving for p, Initial residual = 1.62936e-06, Final residual = 8.94502e-07, No Iterations 15
time step continuity errors : sum local = 1.09384e-10, global = -5.00613e-21, cumulative = 3.96377e-18
ExecutionTime = 306.02 s  ClockTime = 311 s

Time = 2.9875

Courant Number mean: 0.171947 max: 0.610334
smoothSolver:  Solving for Ux, Initial residual = 2.12486e-06, Final residual = 2.12486e-06, No Iterations 0
smoothSolver:  Solving for Uy, Initial residual = 3.89402e-06, Final residual = 3.89402e-06, No Iterations 0
DICPCG:  Solving for p, Initial residual = 2.55793e-06, Final residual = 9.78655e-07, No Iterations 20
time step continuity errors : sum local = 1.18041e-10, global = -3.60758e-20, cumulative = 3.9277e-18
DICPCG:  Solving for p, Initial residual = 1.67891e-06, Final residual = 9.55531e-07, No Iterations 19
time step continuity errors : sum local = 1.15324e-10, global = -6.30046e-20, cumulative = 3.86469e-18
ExecutionTime = 306.04 s  ClockTime = 311 s

Time = 2.98812

Courant Number mean: 0.171948 max: 0.610334
smoothSolver:  Solving for Ux, Initial residual = 2.12302e-06, Final residual = 2.12302e-06, No Iterations 0
smoothSolver:  Solving for Uy, Initial residual = 3.8907e-06, Final residual = 3.8907e-06, No Iterations 0
DICPCG:  Solving for p, Initial residual = 2.78134e-06, Final residual = 9.56906e-07, No Iterations 53
time step continuity errors : sum local = 1.16626e-10, global = -1.30935e-19, cumulative = 3.73376e-18
DICPCG:  Solving for p, Initial residual = 1.71316e-06, Final residual = 9.56194e-07, No Iterations 15
time step continuity errors : sum local = 1.16885e-10, global = 5.31779e-20, cumulative = 3.78693e-18
ExecutionTime = 306.07 s  ClockTime = 311 s

Time = 2.98875

Courant Number mean: 0.171948 max: 0.610334
smoothSolver:  Solving for Ux, Initial residual = 2.12144e-06, Final residual = 2.12144e-06, No Iterations 0
smoothSolver:  Solving for Uy, Initial residual = 3.8868e-06, Final residual = 3.8868e-06, No Iterations 0
DICPCG:  Solving for p, Initial residual = 2.76616e-06, Final residual = 9.50126e-07, No Iterations 21
time step continuity errors : sum local = 1.16313e-10, global = 1.57903e-20, cumulative = 3.80272e-18
DICPCG:  Solving for p, Initial residual = 1.65138e-06, Final residual = 9.91185e-07, No Iterations 14
time step continuity errors : sum local = 1.2077e-10, global = -1.23442e-19, cumulative = 3.67928e-18
ExecutionTime = 306.09 s  ClockTime = 311 s

Time = 2.98937

Courant Number mean: 0.171948 max: 0.610334
smoothSolver:  Solving for Ux, Initial residual = 2.11975e-06, Final residual = 2.11975e-06, No Iterations 0
smoothSolver:  Solving for Uy, Initial residual = 3.88417e-06, Final residual = 3.88417e-06, No Iterations 0
DICPCG:  Solving for p, Initial residual = 2.77868e-06, Final residual = 8.7137e-07, No Iterations 22
time step continuity errors : sum local = 1.078e-10, global = -1.33139e-19, cumulative = 3.54614e-18
DICPCG:  Solving for p, Initial residual = 1.5856e-06, Final residual = 9.69829e-07, No Iterations 14
time step continuity errors : sum local = 1.1853e-10, global = 3.54577e-20, cumulative = 3.5816e-18
ExecutionTime = 306.11 s  ClockTime = 311 s

Time = 2.99

Courant Number mean: 0.171948 max: 0.610334
smoothSolver:  Solving for Ux, Initial residual = 2.11809e-06, Final residual = 2.11809e-06, No Iterations 0
smoothSolver:  Solving for Uy, Initial residual = 3.88088e-06, Final residual = 3.88088e-06, No Iterations 0
DICPCG:  Solving for p, Initial residual = 2.62172e-06, Final residual = 9.99896e-07, No Iterations 20
time step continuity errors : sum local = 1.21773e-10, global = -3.73515e-20, cumulative = 3.54425e-18
DICPCG:  Solving for p, Initial residual = 1.60755e-06, Final residual = 8.83113e-07, No Iterations 20
time step continuity errors : sum local = 1.08715e-10, global = -3.68541e-20, cumulative = 3.50739e-18
ExecutionTime = 306.13 s  ClockTime = 311 s

Time = 2.99062

Courant Number mean: 0.171948 max: 0.610335
smoothSolver:  Solving for Ux, Initial residual = 2.11627e-06, Final residual = 2.11627e-06, No Iterations 0
smoothSolver:  Solving for Uy, Initial residual = 3.87771e-06, Final residual = 3.87771e-06, No Iterations 0
DICPCG:  Solving for p, Initial residual = 2.52253e-06, Final residual = 9.29089e-07, No Iterations 53
time step continuity errors : sum local = 1.15347e-10, global = 6.11534e-20, cumulative = 3.56855e-18
DICPCG:  Solving for p, Initial residual = 1.66761e-06, Final residual = 9.15484e-07, No Iterations 15
time step continuity errors : sum local = 1.1398e-10, global = 8.42493e-20, cumulative = 3.6528e-18
ExecutionTime = 306.16 s  ClockTime = 311 s

Time = 2.99125

Courant Number mean: 0.171949 max: 0.610335
smoothSolver:  Solving for Ux, Initial residual = 2.11472e-06, Final residual = 2.11472e-06, No Iterations 0
smoothSolver:  Solving for Uy, Initial residual = 3.87383e-06, Final residual = 3.87383e-06, No Iterations 0
DICPCG:  Solving for p, Initial residual = 2.66811e-06, Final residual = 8.97014e-07, No Iterations 22
time step continuity errors : sum local = 1.12678e-10, global = 2.58556e-20, cumulative = 3.67865e-18
DICPCG:  Solving for p, Initial residual = 1.66415e-06, Final residual = 8.62383e-07, No Iterations 16
time step continuity errors : sum local = 1.08709e-10, global = 6.31721e-20, cumulative = 3.74183e-18
ExecutionTime = 306.18 s  ClockTime = 311 s

Time = 2.99187

Courant Number mean: 0.171949 max: 0.610335
smoothSolver:  Solving for Ux, Initial residual = 2.11294e-06, Final residual = 2.11294e-06, No Iterations 0
smoothSolver:  Solving for Uy, Initial residual = 3.8713e-06, Final residual = 3.8713e-06, No Iterations 0
DICPCG:  Solving for p, Initial residual = 2.6759e-06, Final residual = 9.41832e-07, No Iterations 19
time step continuity errors : sum local = 1.17493e-10, global = 4.97941e-20, cumulative = 3.79162e-18
DICPCG:  Solving for p, Initial residual = 1.61027e-06, Final residual = 9.19375e-07, No Iterations 14
time step continuity errors : sum local = 1.14772e-10, global = 3.81327e-20, cumulative = 3.82975e-18
ExecutionTime = 306.2 s  ClockTime = 311 s

Time = 2.9925

Courant Number mean: 0.171949 max: 0.610335
smoothSolver:  Solving for Ux, Initial residual = 2.1113e-06, Final residual = 2.1113e-06, No Iterations 0
smoothSolver:  Solving for Uy, Initial residual = 3.86794e-06, Final residual = 3.86794e-06, No Iterations 0
DICPCG:  Solving for p, Initial residual = 2.60902e-06, Final residual = 9.18314e-07, No Iterations 21
time step continuity errors : sum local = 1.14434e-10, global = 2.75804e-20, cumulative = 3.85733e-18
DICPCG:  Solving for p, Initial residual = 1.62058e-06, Final residual = 9.47073e-07, No Iterations 16
time step continuity errors : sum local = 1.17393e-10, global = -2.23494e-20, cumulative = 3.83498e-18
ExecutionTime = 306.22 s  ClockTime = 311 s

Time = 2.99312

Courant Number mean: 0.171949 max: 0.610335
smoothSolver:  Solving for Ux, Initial residual = 2.10949e-06, Final residual = 2.10949e-06, No Iterations 0
smoothSolver:  Solving for Uy, Initial residual = 3.86476e-06, Final residual = 3.86476e-06, No Iterations 0
DICPCG:  Solving for p, Initial residual = 2.6684e-06, Final residual = 9.75116e-07, No Iterations 56
time step continuity errors : sum local = 1.21986e-10, global = 6.52154e-20, cumulative = 3.9002e-18
DICPCG:  Solving for p, Initial residual = 1.6775e-06, Final residual = 9.80053e-07, No Iterations 16
time step continuity errors : sum local = 1.22932e-10, global = 8.6021e-20, cumulative = 3.98622e-18
ExecutionTime = 306.25 s  ClockTime = 311 s

Time = 2.99375

Courant Number mean: 0.17195 max: 0.610335
smoothSolver:  Solving for Ux, Initial residual = 2.10788e-06, Final residual = 2.10788e-06, No Iterations 0
smoothSolver:  Solving for Uy, Initial residual = 3.86115e-06, Final residual = 3.86115e-06, No Iterations 0
DICPCG:  Solving for p, Initial residual = 2.68371e-06, Final residual = 8.90455e-07, No Iterations 23
time step continuity errors : sum local = 1.13311e-10, global = 6.73877e-20, cumulative = 4.05361e-18
DICPCG:  Solving for p, Initial residual = 1.61539e-06, Final residual = 8.23313e-07, No Iterations 17
time step continuity errors : sum local = 1.05682e-10, global = -1.57958e-20, cumulative = 4.03781e-18
ExecutionTime = 306.27 s  ClockTime = 311 s

Time = 2.99437

Courant Number mean: 0.17195 max: 0.610335
smoothSolver:  Solving for Ux, Initial residual = 2.10623e-06, Final residual = 2.10623e-06, No Iterations 0
smoothSolver:  Solving for Uy, Initial residual = 3.85843e-06, Final residual = 3.85843e-06, No Iterations 0
DICPCG:  Solving for p, Initial residual = 2.59392e-06, Final residual = 9.94427e-07, No Iterations 19
time step continuity errors : sum local = 1.24447e-10, global = -1.65762e-20, cumulative = 4.02123e-18
DICPCG:  Solving for p, Initial residual = 1.65084e-06, Final residual = 9.63027e-07, No Iterations 14
time step continuity errors : sum local = 1.20769e-10, global = -2.87745e-20, cumulative = 3.99246e-18
ExecutionTime = 306.29 s  ClockTime = 311 s

Time = 2.995

Courant Number mean: 0.17195 max: 0.610335
smoothSolver:  Solving for Ux, Initial residual = 2.10453e-06, Final residual = 2.10453e-06, No Iterations 0
smoothSolver:  Solving for Uy, Initial residual = 3.85507e-06, Final residual = 3.85507e-06, No Iterations 0
DICPCG:  Solving for p, Initial residual = 2.72451e-06, Final residual = 9.45081e-07, No Iterations 21
time step continuity errors : sum local = 1.18339e-10, global = 3.93169e-20, cumulative = 4.03178e-18
DICPCG:  Solving for p, Initial residual = 1.69496e-06, Final residual = 9.49891e-07, No Iterations 20
time step continuity errors : sum local = 1.18665e-10, global = -1.06678e-20, cumulative = 4.02111e-18
ExecutionTime = 306.31 s  ClockTime = 311 s

Time = 2.99562

Courant Number mean: 0.17195 max: 0.610335
smoothSolver:  Solving for Ux, Initial residual = 2.10273e-06, Final residual = 2.10273e-06, No Iterations 0
smoothSolver:  Solving for Uy, Initial residual = 3.85202e-06, Final residual = 3.85202e-06, No Iterations 0
DICPCG:  Solving for p, Initial residual = 2.70917e-06, Final residual = 9.12022e-07, No Iterations 56
time step continuity errors : sum local = 1.15815e-10, global = -2.40024e-20, cumulative = 3.99711e-18
DICPCG:  Solving for p, Initial residual = 1.70003e-06, Final residual = 8.63064e-07, No Iterations 17
time step continuity errors : sum local = 1.10551e-10, global = -1.02323e-20, cumulative = 3.98687e-18
ExecutionTime = 306.34 s  ClockTime = 311 s

Time = 2.99625

Courant Number mean: 0.17195 max: 0.610335
smoothSolver:  Solving for Ux, Initial residual = 2.1011e-06, Final residual = 2.1011e-06, No Iterations 0
smoothSolver:  Solving for Uy, Initial residual = 3.84838e-06, Final residual = 3.84838e-06, No Iterations 0
DICPCG:  Solving for p, Initial residual = 2.68046e-06, Final residual = 9.30977e-07, No Iterations 58
time step continuity errors : sum local = 1.15206e-10, global = -1.45584e-20, cumulative = 3.97232e-18
DICPCG:  Solving for p, Initial residual = 1.66462e-06, Final residual = 9.47547e-07, No Iterations 19
time step continuity errors : sum local = 1.16038e-10, global = 2.11018e-20, cumulative = 3.99342e-18
ExecutionTime = 306.37 s  ClockTime = 311 s

Time = 2.99687

Courant Number mean: 0.171951 max: 0.610335
smoothSolver:  Solving for Ux, Initial residual = 2.09919e-06, Final residual = 2.09919e-06, No Iterations 0
smoothSolver:  Solving for Uy, Initial residual = 3.84646e-06, Final residual = 3.84646e-06, No Iterations 0
DICPCG:  Solving for p, Initial residual = 2.75005e-06, Final residual = 9.02361e-07, No Iterations 57
time step continuity errors : sum local = 1.1139e-10, global = -7.43434e-21, cumulative = 3.98598e-18
DICPCG:  Solving for p, Initial residual = 1.64346e-06, Final residual = 9.83246e-07, No Iterations 16
time step continuity errors : sum local = 1.20439e-10, global = 8.78915e-20, cumulative = 4.07388e-18
ExecutionTime = 306.4 s  ClockTime = 311 s

Time = 2.9975

Courant Number mean: 0.171951 max: 0.610335
smoothSolver:  Solving for Ux, Initial residual = 2.09748e-06, Final residual = 2.09748e-06, No Iterations 0
smoothSolver:  Solving for Uy, Initial residual = 3.84224e-06, Final residual = 3.84224e-06, No Iterations 0
DICPCG:  Solving for p, Initial residual = 2.80655e-06, Final residual = 9.42693e-07, No Iterations 21
time step continuity errors : sum local = 1.15611e-10, global = 8.60099e-21, cumulative = 4.08248e-18
DICPCG:  Solving for p, Initial residual = 1.65037e-06, Final residual = 9.83402e-07, No Iterations 15
time step continuity errors : sum local = 1.19848e-10, global = 7.41565e-20, cumulative = 4.15663e-18
ExecutionTime = 306.42 s  ClockTime = 311 s

Time = 2.99812

Courant Number mean: 0.171951 max: 0.610336
smoothSolver:  Solving for Ux, Initial residual = 2.09613e-06, Final residual = 2.09613e-06, No Iterations 0
smoothSolver:  Solving for Uy, Initial residual = 3.83917e-06, Final residual = 3.83917e-06, No Iterations 0
DICPCG:  Solving for p, Initial residual = 2.80757e-06, Final residual = 9.53327e-07, No Iterations 20
time step continuity errors : sum local = 1.15982e-10, global = -5.7794e-20, cumulative = 4.09884e-18
DICPCG:  Solving for p, Initial residual = 1.61927e-06, Final residual = 9.74371e-07, No Iterations 14
time step continuity errors : sum local = 1.17865e-10, global = 3.81876e-20, cumulative = 4.13703e-18
ExecutionTime = 306.44 s  ClockTime = 311 s

Time = 2.99875

Courant Number mean: 0.171951 max: 0.610336
smoothSolver:  Solving for Ux, Initial residual = 2.09438e-06, Final residual = 2.09438e-06, No Iterations 0
smoothSolver:  Solving for Uy, Initial residual = 3.83613e-06, Final residual = 3.83613e-06, No Iterations 0
DICPCG:  Solving for p, Initial residual = 2.81377e-06, Final residual = 9.89132e-07, No Iterations 19
time step continuity errors : sum local = 1.18811e-10, global = 3.17447e-20, cumulative = 4.16877e-18
DICPCG:  Solving for p, Initial residual = 1.66742e-06, Final residual = 9.21791e-07, No Iterations 14
time step continuity errors : sum local = 1.11061e-10, global = -5.91045e-20, cumulative = 4.10967e-18
ExecutionTime = 306.46 s  ClockTime = 311 s

Time = 2.99937

Courant Number mean: 0.171952 max: 0.610336
smoothSolver:  Solving for Ux, Initial residual = 2.09269e-06, Final residual = 2.09269e-06, No Iterations 0
smoothSolver:  Solving for Uy, Initial residual = 3.83273e-06, Final residual = 3.83273e-06, No Iterations 0
DICPCG:  Solving for p, Initial residual = 2.62848e-06, Final residual = 9.60246e-07, No Iterations 54
time step continuity errors : sum local = 1.16771e-10, global = -4.13783e-20, cumulative = 4.06829e-18
DICPCG:  Solving for p, Initial residual = 1.67964e-06, Final residual = 8.91503e-07, No Iterations 16
time step continuity errors : sum local = 1.09522e-10, global = -6.44873e-20, cumulative = 4.0038e-18
ExecutionTime = 306.49 s  ClockTime = 311 s

Time = 3

Courant Number mean: 0.171952 max: 0.610336
smoothSolver:  Solving for Ux, Initial residual = 2.09094e-06, Final residual = 2.09094e-06, No Iterations 0
smoothSolver:  Solving for Uy, Initial residual = 3.82928e-06, Final residual = 3.82928e-06, No Iterations 0
DICPCG:  Solving for p, Initial residual = 2.66309e-06, Final residual = 8.3321e-07, No Iterations 21
time step continuity errors : sum local = 1.03227e-10, global = -1.23491e-19, cumulative = 3.88031e-18
DICPCG:  Solving for p, Initial residual = 1.53135e-06, Final residual = 9.73529e-07, No Iterations 14
time step continuity errors : sum local = 1.18595e-10, global = -7.10072e-20, cumulative = 3.8093e-18
ExecutionTime = 306.56 s  ClockTime = 311 s

End

