/*---------------------------------------------------------------------------*\
  =========                 |
  \\      /  F ield         | OpenFOAM: The Open Source CFD Toolbox
   \\    /   O peration     | Website:  https://openfoam.org
    \\  /    A nd           | Version:  7
     \\/     M anipulation  |
\*---------------------------------------------------------------------------*/
Build  : 7
Exec   : reconstructPar
Date   : Mar 05 2025
Time   : 23:48:03
Host   : "c205-009.frontera.tacc.utexas.edu"
PID    : 277519
I/O    : uncollated
Case   : /work2/10249/ctshep3141/frontera/coe347/COE-347-Open-Foam/of-project-2/Re-20/radial-refinement/coarse
nProcs : 1
sigFpe : Enabling floating point exception trapping (FOAM_SIGFPE).
fileModificationChecking : Monitoring run-time modified files using timeStampMaster (fileModificationSkew 10)
allowSystemOperations : Allowing user-supplied system call operations

// * * * * * * * * * * * * * * * * * * * * * * * * * * * * * * * * * * * * * //
Create time

--> FOAM Warning : 
    From function entry::New(dictionary&, Istream&)
    in file db/dictionary/entry/entryIO.C at line 144
    Reading /work2/10249/ctshep3141/frontera/coe347/COE-347-Open-Foam/of-project-2/Re-20/radial-refinement/coarse/system/probes
    found on line 26 the punctuation token '/'
    expected either } or EOF
--> FOAM Warning : 
    From function entry::New(dictionary&, Istream&)
    in file db/dictionary/entry/entryIO.C at line 144
    Reading /work2/10249/ctshep3141/frontera/coe347/COE-347-Open-Foam/of-project-2/Re-20/radial-refinement/coarse/system/probes
    found on line 26 the punctuation token '/'
    expected either } or EOF
--> FOAM Warning : 
    From function entry::New(dictionary&, Istream&)
    in file db/dictionary/entry/entryIO.C at line 144
    Reading /work2/10249/ctshep3141/frontera/coe347/COE-347-Open-Foam/of-project-2/Re-20/radial-refinement/coarse/system/probes
    found on line 26 the punctuation token '/'
    expected either } or EOF
--> FOAM Warning : 
    From function entry::New(dictionary&, Istream&)
    in file db/dictionary/entry/entryIO.C at line 144
    Reading /work2/10249/ctshep3141/frontera/coe347/COE-347-Open-Foam/of-project-2/Re-20/radial-refinement/coarse/system/probes
    found on line 26 the punctuation token '/'
    expected either } or EOF
--> FOAM Warning : 
    From function entry::New(dictionary&, Istream&)
    in file db/dictionary/entry/entryIO.C at line 144
    Reading /work2/10249/ctshep3141/frontera/coe347/COE-347-Open-Foam/of-project-2/Re-20/radial-refinement/coarse/system/probes
    found on line 26 the punctuation token '/'
    expected either } or EOF
--> FOAM Warning : 
    From function entry::New(dictionary&, Istream&)
    in file db/dictionary/entry/entryIO.C at line 144
    Reading /work2/10249/ctshep3141/frontera/coe347/COE-347-Open-Foam/of-project-2/Re-20/radial-refinement/coarse/system/probes
    found on line 26 the punctuation token '/'
    expected either } or EOF
--> FOAM Warning : 
    From function entry::New(dictionary&, Istream&)
    in file db/dictionary/entry/entryIO.C at line 144
    Reading /work2/10249/ctshep3141/frontera/coe347/COE-347-Open-Foam/of-project-2/Re-20/radial-refinement/coarse/system/probes
    found on line 26 the punctuation token '/'
    expected either } or EOF
--> FOAM Warning : 
    From function entry::New(dictionary&, Istream&)
    in file db/dictionary/entry/entryIO.C at line 144
    Reading /work2/10249/ctshep3141/frontera/coe347/COE-347-Open-Foam/of-project-2/Re-20/radial-refinement/coarse/system/probes
    found on line 26 the punctuation token '/'
    expected either } or EOF
--> FOAM Warning : 
    From function entry::New(dictionary&, Istream&)
    in file db/dictionary/entry/entryIO.C at line 144
    Reading /work2/10249/ctshep3141/frontera/coe347/COE-347-Open-Foam/of-project-2/Re-20/radial-refinement/coarse/system/probes
    found on line 26 the punctuation token '/'
    expected either } or EOF
--> FOAM Warning : 
    From function entry::New(dictionary&, Istream&)
    in file db/dictionary/entry/entryIO.C at line 144
    Reading /work2/10249/ctshep3141/frontera/coe347/COE-347-Open-Foam/of-project-2/Re-20/radial-refinement/coarse/system/probes
    found on line 26 the punctuation token '/'
    expected either } or EOF
--> FOAM Warning : 
    From function entry::New(dictionary&, Istream&)
    in file db/dictionary/entry/entryIO.C at line 144
    Reading /work2/10249/ctshep3141/frontera/coe347/COE-347-Open-Foam/of-project-2/Re-20/radial-refinement/coarse/system/probes
    found on line 26 the punctuation token '/'
    expected either } or EOF
--> FOAM Warning : 
    From function entry::New(dictionary&, Istream&)
    in file db/dictionary/entry/entryIO.C at line 144
    Reading /work2/10249/ctshep3141/frontera/coe347/COE-347-Open-Foam/of-project-2/Re-20/radial-refinement/coarse/system/probes
    found on line 26 the punctuation token '/'
    expected either } or EOF
--> FOAM Warning : 
    From function entry::New(dictionary&, Istream&)
    in file db/dictionary/entry/entryIO.C at line 144
    Reading /work2/10249/ctshep3141/frontera/coe347/COE-347-Open-Foam/of-project-2/Re-20/radial-refinement/coarse/system/probes
    found on line 26 the punctuation token '/'
    expected either } or EOF
--> FOAM Warning : 
    From function entry::New(dictionary&, Istream&)
    in file db/dictionary/entry/entryIO.C at line 144
    Reading /work2/10249/ctshep3141/frontera/coe347/COE-347-Open-Foam/of-project-2/Re-20/radial-refinement/coarse/system/probes
    found on line 26 the punctuation token '/'
    expected either } or EOF
--> FOAM Warning : 
    From function entry::New(dictionary&, Istream&)
    in file db/dictionary/entry/entryIO.C at line 144
    Reading /work2/10249/ctshep3141/frontera/coe347/COE-347-Open-Foam/of-project-2/Re-20/radial-refinement/coarse/system/probes
    found on line 26 the punctuation token '/'
    expected either } or EOF
--> FOAM Warning : 
    From function entry::New(dictionary&, Istream&)
    in file db/dictionary/entry/entryIO.C at line 144
    Reading /work2/10249/ctshep3141/frontera/coe347/COE-347-Open-Foam/of-project-2/Re-20/radial-refinement/coarse/system/probes
    found on line 26 the punctuation token '/'
    expected either } or EOF
--> FOAM Warning : 
    From function entry::New(dictionary&, Istream&)
    in file db/dictionary/entry/entryIO.C at line 144
    Reading /work2/10249/ctshep3141/frontera/coe347/COE-347-Open-Foam/of-project-2/Re-20/radial-refinement/coarse/system/probes
    found on line 26 the punctuation token '/'
    expected either } or EOF
--> FOAM Warning : 
    From function entry::New(dictionary&, Istream&)
    in file db/dictionary/entry/entryIO.C at line 144
    Reading /work2/10249/ctshep3141/frontera/coe347/COE-347-Open-Foam/of-project-2/Re-20/radial-refinement/coarse/system/probes
    found on line 26 the punctuation token '/'
    expected either } or EOF
--> FOAM Warning : 
    From function entry::New(dictionary&, Istream&)
    in file db/dictionary/entry/entryIO.C at line 144
    Reading /work2/10249/ctshep3141/frontera/coe347/COE-347-Open-Foam/of-project-2/Re-20/radial-refinement/coarse/system/probes
    found on line 26 the punctuation token '/'
    expected either } or EOF
--> FOAM Warning : 
    From function entry::New(dictionary&, Istream&)
    in file db/dictionary/entry/entryIO.C at line 144
    Reading /work2/10249/ctshep3141/frontera/coe347/COE-347-Open-Foam/of-project-2/Re-20/radial-refinement/coarse/system/probes
    found on line 26 the punctuation token '/'
    expected either } or EOF
--> FOAM Warning : 
    From function entry::New(dictionary&, Istream&)
    in file db/dictionary/entry/entryIO.C at line 144
    Reading /work2/10249/ctshep3141/frontera/coe347/COE-347-Open-Foam/of-project-2/Re-20/radial-refinement/coarse/system/probes
    found on line 26 the punctuation token '/'
    expected either } or EOF
--> FOAM Warning : 
    From function entry::New(dictionary&, Istream&)
    in file db/dictionary/entry/entryIO.C at line 144
    Reading /work2/10249/ctshep3141/frontera/coe347/COE-347-Open-Foam/of-project-2/Re-20/radial-refinement/coarse/system/probes
    found on line 26 the punctuation token '/'
    expected either } or EOF
--> FOAM Warning : 
    From function entry::New(dictionary&, Istream&)
    in file db/dictionary/entry/entryIO.C at line 144
    Reading /work2/10249/ctshep3141/frontera/coe347/COE-347-Open-Foam/of-project-2/Re-20/radial-refinement/coarse/system/probes
    found on line 26 the punctuation token '/'
    expected either } or EOF
--> FOAM Warning : 
    From function entry::New(dictionary&, Istream&)
    in file db/dictionary/entry/entryIO.C at line 144
    Reading /work2/10249/ctshep3141/frontera/coe347/COE-347-Open-Foam/of-project-2/Re-20/radial-refinement/coarse/system/probes
    found on line 26 the punctuation token '/'
    expected either } or EOF
--> FOAM Warning : 
    From function entry::New(dictionary&, Istream&)
    in file db/dictionary/entry/entryIO.C at line 144
    Reading /work2/10249/ctshep3141/frontera/coe347/COE-347-Open-Foam/of-project-2/Re-20/radial-refinement/coarse/system/probes
    found on line 26 the punctuation token '/'
    expected either } or EOF
--> FOAM Warning : 
    From function entry::New(dictionary&, Istream&)
    in file db/dictionary/entry/entryIO.C at line 144
    Reading /work2/10249/ctshep3141/frontera/coe347/COE-347-Open-Foam/of-project-2/Re-20/radial-refinement/coarse/system/probes
    found on line 26 the punctuation token '/'
    expected either } or EOF
--> FOAM Warning : 
    From function entry::New(dictionary&, Istream&)
    in file db/dictionary/entry/entryIO.C at line 144
    Reading /work2/10249/ctshep3141/frontera/coe347/COE-347-Open-Foam/of-project-2/Re-20/radial-refinement/coarse/system/probes
    found on line 26 the punctuation token '/'
    expected either } or EOF
--> FOAM Warning : 
    From function entry::New(dictionary&, Istream&)
    in file db/dictionary/entry/entryIO.C at line 144
    Reading /work2/10249/ctshep3141/frontera/coe347/COE-347-Open-Foam/of-project-2/Re-20/radial-refinement/coarse/system/probes
    found on line 26 the punctuation token '/'
    expected either } or EOF
--> FOAM Warning : 
    From function entry::New(dictionary&, Istream&)
    in file db/dictionary/entry/entryIO.C at line 144
    Reading /work2/10249/ctshep3141/frontera/coe347/COE-347-Open-Foam/of-project-2/Re-20/radial-refinement/coarse/system/probes
    found on line 26 the punctuation token '/'
    expected either } or EOF
--> FOAM Warning : 
    From function entry::New(dictionary&, Istream&)
    in file db/dictionary/entry/entryIO.C at line 144
    Reading /work2/10249/ctshep3141/frontera/coe347/COE-347-Open-Foam/of-project-2/Re-20/radial-refinement/coarse/system/probes
    found on line 26 the punctuation token '/'
    expected either } or EOF
--> FOAM Warning : 
    From function entry::New(dictionary&, Istream&)
    in file db/dictionary/entry/entryIO.C at line 144
    Reading /work2/10249/ctshep3141/frontera/coe347/COE-347-Open-Foam/of-project-2/Re-20/radial-refinement/coarse/system/probes
    found on line 26 the punctuation token '/'
    expected either } or EOF
--> FOAM Warning : 
    From function entry::New(dictionary&, Istream&)
    in file db/dictionary/entry/entryIO.C at line 144
    Reading /work2/10249/ctshep3141/frontera/coe347/COE-347-Open-Foam/of-project-2/Re-20/radial-refinement/coarse/system/probes
    found on line 26 the punctuation token '/'
    expected either } or EOF
--> FOAM Warning : 
    From function entry::New(dictionary&, Istream&)
    in file db/dictionary/entry/entryIO.C at line 144
    Reading /work2/10249/ctshep3141/frontera/coe347/COE-347-Open-Foam/of-project-2/Re-20/radial-refinement/coarse/system/probes
    found on line 26 the punctuation token '/'
    expected either } or EOF
--> FOAM Warning : 
    From function entry::New(dictionary&, Istream&)
    in file db/dictionary/entry/entryIO.C at line 144
    Reading /work2/10249/ctshep3141/frontera/coe347/COE-347-Open-Foam/of-project-2/Re-20/radial-refinement/coarse/system/probes
    found on line 26 the punctuation token '/'
    expected either } or EOF
--> FOAM Warning : 
    From function entry::New(dictionary&, Istream&)
    in file db/dictionary/entry/entryIO.C at line 144
    Reading /work2/10249/ctshep3141/frontera/coe347/COE-347-Open-Foam/of-project-2/Re-20/radial-refinement/coarse/system/probes
    found on line 26 the punctuation token '/'
    expected either } or EOF
--> FOAM Warning : 
    From function entry::New(dictionary&, Istream&)
    in file db/dictionary/entry/entryIO.C at line 144
    Reading /work2/10249/ctshep3141/frontera/coe347/COE-347-Open-Foam/of-project-2/Re-20/radial-refinement/coarse/system/probes
    found on line 26 the punctuation token '/'
    expected either } or EOF
--> FOAM Warning : 
    From function entry::New(dictionary&, Istream&)
    in file db/dictionary/entry/entryIO.C at line 144
    Reading /work2/10249/ctshep3141/frontera/coe347/COE-347-Open-Foam/of-project-2/Re-20/radial-refinement/coarse/system/probes
    found on line 26 the punctuation token '/'
    expected either } or EOF
--> FOAM Warning : 
    From function entry::New(dictionary&, Istream&)
    in file db/dictionary/entry/entryIO.C at line 144
    Reading /work2/10249/ctshep3141/frontera/coe347/COE-347-Open-Foam/of-project-2/Re-20/radial-refinement/coarse/system/probes
    found on line 26 the punctuation token '/'
    expected either } or EOF
--> FOAM Warning : 
    From function entry::New(dictionary&, Istream&)
    in file db/dictionary/entry/entryIO.C at line 144
    Reading /work2/10249/ctshep3141/frontera/coe347/COE-347-Open-Foam/of-project-2/Re-20/radial-refinement/coarse/system/probes
    found on line 26 the punctuation token '/'
    expected either } or EOF
--> FOAM Warning : 
    From function entry::New(dictionary&, Istream&)
    in file db/dictionary/entry/entryIO.C at line 144
    Reading /work2/10249/ctshep3141/frontera/coe347/COE-347-Open-Foam/of-project-2/Re-20/radial-refinement/coarse/system/probes
    found on line 26 the punctuation token '/'
    expected either } or EOF
--> FOAM Warning : 
    From function entry::New(dictionary&, Istream&)
    in file db/dictionary/entry/entryIO.C at line 144
    Reading /work2/10249/ctshep3141/frontera/coe347/COE-347-Open-Foam/of-project-2/Re-20/radial-refinement/coarse/system/probes
    found on line 26 the punctuation token '/'
    expected either } or EOF
--> FOAM Warning : 
    From function entry::New(dictionary&, Istream&)
    in file db/dictionary/entry/entryIO.C at line 144
    Reading /work2/10249/ctshep3141/frontera/coe347/COE-347-Open-Foam/of-project-2/Re-20/radial-refinement/coarse/system/probes
    found on line 26 the punctuation token '/'
    expected either } or EOF
--> FOAM Warning : 
    From function entry::New(dictionary&, Istream&)
    in file db/dictionary/entry/entryIO.C at line 144
    Reading /work2/10249/ctshep3141/frontera/coe347/COE-347-Open-Foam/of-project-2/Re-20/radial-refinement/coarse/system/probes
    found on line 26 the punctuation token '/'
    expected either } or EOF
--> FOAM Warning : 
    From function entry::New(dictionary&, Istream&)
    in file db/dictionary/entry/entryIO.C at line 144
    Reading /work2/10249/ctshep3141/frontera/coe347/COE-347-Open-Foam/of-project-2/Re-20/radial-refinement/coarse/system/probes
    found on line 26 the punctuation token '/'
    expected either } or EOF
--> FOAM Warning : 
    From function entry::New(dictionary&, Istream&)
    in file db/dictionary/entry/entryIO.C at line 144
    Reading /work2/10249/ctshep3141/frontera/coe347/COE-347-Open-Foam/of-project-2/Re-20/radial-refinement/coarse/system/probes
    found on line 26 the punctuation token '/'
    expected either } or EOF
--> FOAM Warning : 
    From function entry::New(dictionary&, Istream&)
    in file db/dictionary/entry/entryIO.C at line 144
    Reading /work2/10249/ctshep3141/frontera/coe347/COE-347-Open-Foam/of-project-2/Re-20/radial-refinement/coarse/system/probes
    found on line 26 the punctuation token '/'
    expected either } or EOF
--> FOAM Warning : 
    From function entry::New(dictionary&, Istream&)
    in file db/dictionary/entry/entryIO.C at line 144
    Reading /work2/10249/ctshep3141/frontera/coe347/COE-347-Open-Foam/of-project-2/Re-20/radial-refinement/coarse/system/probes
    found on line 26 the punctuation token '/'
    expected either } or EOF
--> FOAM Warning : 
    From function entry::New(dictionary&, Istream&)
    in file db/dictionary/entry/entryIO.C at line 144
    Reading /work2/10249/ctshep3141/frontera/coe347/COE-347-Open-Foam/of-project-2/Re-20/radial-refinement/coarse/system/probes
    found on line 26 the punctuation token '/'
    expected either } or EOF
--> FOAM Warning : 
    From function entry::New(dictionary&, Istream&)
    in file db/dictionary/entry/entryIO.C at line 144
    Reading /work2/10249/ctshep3141/frontera/coe347/COE-347-Open-Foam/of-project-2/Re-20/radial-refinement/coarse/system/probes
    found on line 26 the punctuation token '/'
    expected either } or EOF
--> FOAM Warning : 
    From function entry::New(dictionary&, Istream&)
    in file db/dictionary/entry/entryIO.C at line 144
    Reading /work2/10249/ctshep3141/frontera/coe347/COE-347-Open-Foam/of-project-2/Re-20/radial-refinement/coarse/system/probes
    found on line 26 the punctuation token '/'
    expected either } or EOF
--> FOAM Warning : 
    From function entry::New(dictionary&, Istream&)
    in file db/dictionary/entry/entryIO.C at line 144
    Reading /work2/10249/ctshep3141/frontera/coe347/COE-347-Open-Foam/of-project-2/Re-20/radial-refinement/coarse/system/probes
    found on line 26 the punctuation token '/'
    expected either } or EOF
--> FOAM Warning : 
    From function entry::New(dictionary&, Istream&)
    in file db/dictionary/entry/entryIO.C at line 144
    Reading /work2/10249/ctshep3141/frontera/coe347/COE-347-Open-Foam/of-project-2/Re-20/radial-refinement/coarse/system/probes
    found on line 26 the punctuation token '/'
    expected either } or EOF
--> FOAM Warning : 
    From function entry::New(dictionary&, Istream&)
    in file db/dictionary/entry/entryIO.C at line 144
    Reading /work2/10249/ctshep3141/frontera/coe347/COE-347-Open-Foam/of-project-2/Re-20/radial-refinement/coarse/system/probes
    found on line 26 the punctuation token '/'
    expected either } or EOF
--> FOAM Warning : 
    From function entry::New(dictionary&, Istream&)
    in file db/dictionary/entry/entryIO.C at line 144
    Reading /work2/10249/ctshep3141/frontera/coe347/COE-347-Open-Foam/of-project-2/Re-20/radial-refinement/coarse/system/probes
    found on line 26 the punctuation token '/'
    expected either } or EOF
--> FOAM Warning : 
    From function entry::New(dictionary&, Istream&)
    in file db/dictionary/entry/entryIO.C at line 144
    Reading /work2/10249/ctshep3141/frontera/coe347/COE-347-Open-Foam/of-project-2/Re-20/radial-refinement/coarse/system/probes
    found on line 26 the punctuation token '/'
    expected either } or EOF
--> FOAM Warning : 
    From function entry::New(dictionary&, Istream&)
    in file db/dictionary/entry/entryIO.C at line 144
    Reading /work2/10249/ctshep3141/frontera/coe347/COE-347-Open-Foam/of-project-2/Re-20/radial-refinement/coarse/system/probes
    found on line 26 the punctuation token '/'
    expected either } or EOF
--> FOAM Warning : 
    From function entry::New(dictionary&, Istream&)
    in file db/dictionary/entry/entryIO.C at line 144
    Reading /work2/10249/ctshep3141/frontera/coe347/COE-347-Open-Foam/of-project-2/Re-20/radial-refinement/coarse/system/probes
    found on line 26 the punctuation token '/'
    expected either } or EOF


Reconstructing fields for mesh region0

Time = 5

Reconstructing FV fields

    Reconstructing volScalarFields

        p

    Reconstructing volVectorFields

        U

    Reconstructing surfaceScalarFields

        phi

Reconstructing point fields

No point fields

No lagrangian fields

Time = 10

Reconstructing FV fields

    Reconstructing volScalarFields

        p

    Reconstructing volVectorFields

        U

    Reconstructing surfaceScalarFields

        phi

Reconstructing point fields

No point fields

No lagrangian fields

Time = 15

Reconstructing FV fields

    Reconstructing volScalarFields

        p

    Reconstructing volVectorFields

        U

    Reconstructing surfaceScalarFields

        phi

Reconstructing point fields

No point fields

No lagrangian fields

Time = 20

Reconstructing FV fields

    Reconstructing volScalarFields

        p

    Reconstructing volVectorFields

        U

    Reconstructing surfaceScalarFields

        phi

Reconstructing point fields

No point fields

No lagrangian fields

Time = 25

Reconstructing FV fields

    Reconstructing volScalarFields

        p

    Reconstructing volVectorFields

        U

    Reconstructing surfaceScalarFields

        phi

Reconstructing point fields

No point fields

No lagrangian fields

Time = 30

Reconstructing FV fields

    Reconstructing volScalarFields

        p

    Reconstructing volVectorFields

        U

    Reconstructing surfaceScalarFields

        phi

Reconstructing point fields

No point fields

No lagrangian fields

Time = 35

Reconstructing FV fields

    Reconstructing volScalarFields

        p

    Reconstructing volVectorFields

        U

    Reconstructing surfaceScalarFields

        phi

Reconstructing point fields

No point fields

No lagrangian fields

Time = 40

Reconstructing FV fields

    Reconstructing volScalarFields

        p

    Reconstructing volVectorFields

        U

    Reconstructing surfaceScalarFields

        phi

Reconstructing point fields

No point fields

No lagrangian fields

Time = 45

Reconstructing FV fields

    Reconstructing volScalarFields

        p

    Reconstructing volVectorFields

        U

    Reconstructing surfaceScalarFields

        phi

Reconstructing point fields

No point fields

No lagrangian fields

Time = 50

Reconstructing FV fields

    Reconstructing volScalarFields

        p

    Reconstructing volVectorFields

        U

    Reconstructing surfaceScalarFields

        phi

Reconstructing point fields

No point fields

No lagrangian fields


End

