/*---------------------------------------------------------------------------*\
  =========                 |
  \\      /  F ield         | OpenFOAM: The Open Source CFD Toolbox
   \\    /   O peration     | Website:  https://openfoam.org
    \\  /    A nd           | Version:  7
     \\/     M anipulation  |
\*---------------------------------------------------------------------------*/
Build  : 7
Exec   : icoFoam
Date   : Feb 11 2025
Time   : 00:36:05
Host   : "c209-001.frontera.tacc.utexas.edu"
PID    : 201293
I/O    : uncollated
Case   : /work2/10249/ctshep3141/frontera/coe347/COE-347-Open-Foam/of-project-1/extracred/Re-250-AR-half
nProcs : 1
sigFpe : Enabling floating point exception trapping (FOAM_SIGFPE).
fileModificationChecking : Monitoring run-time modified files using timeStampMaster (fileModificationSkew 10)
allowSystemOperations : Allowing user-supplied system call operations

// * * * * * * * * * * * * * * * * * * * * * * * * * * * * * * * * * * * * * //
Create time

Create mesh for time = 0

Reading transportProperties

Reading field p

Reading field U

Reading/calculating face flux field phi


Starting time loop

Time = 0.000625

Courant Number mean: 0 max: 0
smoothSolver:  Solving for Ux, Initial residual = 1, Final residual = 4.14757e-06, No Iterations 5
smoothSolver:  Solving for Uy, Initial residual = 0, Final residual = 0, No Iterations 0
DICPCG:  Solving for p, Initial residual = 1, Final residual = 0.0470561, No Iterations 91
time step continuity errors : sum local = 1.05287e-06, global = -3.86448e-22, cumulative = -3.86448e-22
DICPCG:  Solving for p, Initial residual = 0.304469, Final residual = 7.58659e-07, No Iterations 249
time step continuity errors : sum local = 3.13608e-11, global = -2.9963e-21, cumulative = -3.38274e-21
ExecutionTime = 0.24 s  ClockTime = 0 s

Time = 0.00125

Courant Number mean: 0.00272539 max: 0.17971
smoothSolver:  Solving for Ux, Initial residual = 0.27924, Final residual = 2.52971e-06, No Iterations 5
smoothSolver:  Solving for Uy, Initial residual = 0.326008, Final residual = 4.87146e-06, No Iterations 5
DICPCG:  Solving for p, Initial residual = 0.17744, Final residual = 0.00853148, No Iterations 88
time step continuity errors : sum local = 3.71419e-07, global = -1.62937e-20, cumulative = -1.96764e-20
DICPCG:  Solving for p, Initial residual = 0.0706331, Final residual = 9.96463e-07, No Iterations 240
time step continuity errors : sum local = 4.62653e-11, global = 2.60562e-21, cumulative = -1.70708e-20
ExecutionTime = 0.36 s  ClockTime = 0 s

Time = 0.001875

Courant Number mean: 0.00473189 max: 0.288719
smoothSolver:  Solving for Ux, Initial residual = 0.145378, Final residual = 1.39271e-06, No Iterations 5
smoothSolver:  Solving for Uy, Initial residual = 0.171735, Final residual = 2.6029e-06, No Iterations 5
DICPCG:  Solving for p, Initial residual = 0.108488, Final residual = 0.00521603, No Iterations 81
time step continuity errors : sum local = 2.56766e-07, global = 4.99978e-21, cumulative = -1.2071e-20
DICPCG:  Solving for p, Initial residual = 0.0427237, Final residual = 9.61252e-07, No Iterations 236
time step continuity errors : sum local = 4.93008e-11, global = -3.61936e-21, cumulative = -1.56904e-20
ExecutionTime = 0.47 s  ClockTime = 0 s

Time = 0.0025

Courant Number mean: 0.00628727 max: 0.357018
smoothSolver:  Solving for Ux, Initial residual = 0.092204, Final residual = 8.80999e-06, No Iterations 4
smoothSolver:  Solving for Uy, Initial residual = 0.109144, Final residual = 1.67475e-06, No Iterations 5
DICPCG:  Solving for p, Initial residual = 0.0747485, Final residual = 0.00356509, No Iterations 79
time step continuity errors : sum local = 1.90364e-07, global = -5.90497e-22, cumulative = -1.62809e-20
DICPCG:  Solving for p, Initial residual = 0.0292198, Final residual = 9.67491e-07, No Iterations 234
time step continuity errors : sum local = 5.3647e-11, global = -3.61347e-21, cumulative = -1.98944e-20
ExecutionTime = 0.59 s  ClockTime = 0 s

Time = 0.003125

Courant Number mean: 0.00754453 max: 0.401513
smoothSolver:  Solving for Ux, Initial residual = 0.0655025, Final residual = 6.54301e-06, No Iterations 4
smoothSolver:  Solving for Uy, Initial residual = 0.0773761, Final residual = 1.20004e-06, No Iterations 5
DICPCG:  Solving for p, Initial residual = 0.054293, Final residual = 0.00258251, No Iterations 77
time step continuity errors : sum local = 1.48924e-07, global = 3.94569e-21, cumulative = -1.59487e-20
DICPCG:  Solving for p, Initial residual = 0.0212304, Final residual = 8.30855e-07, No Iterations 233
time step continuity errors : sum local = 4.89254e-11, global = 1.34218e-20, cumulative = -2.52691e-21
ExecutionTime = 0.71 s  ClockTime = 0 s

Time = 0.00375

Courant Number mean: 0.00861358 max: 0.431734
smoothSolver:  Solving for Ux, Initial residual = 0.0501126, Final residual = 5.19396e-06, No Iterations 4
smoothSolver:  Solving for Uy, Initial residual = 0.0589521, Final residual = 8.4103e-06, No Iterations 4
DICPCG:  Solving for p, Initial residual = 0.0416571, Final residual = 0.00197564, No Iterations 75
time step continuity errors : sum local = 1.19205e-07, global = -1.37953e-21, cumulative = -3.90644e-21
DICPCG:  Solving for p, Initial residual = 0.016325, Final residual = 9.14049e-07, No Iterations 230
time step continuity errors : sum local = 5.65273e-11, global = -1.16139e-20, cumulative = -1.55204e-20
ExecutionTime = 0.82 s  ClockTime = 1 s

Time = 0.004375

Courant Number mean: 0.00954562 max: 0.453145
smoothSolver:  Solving for Ux, Initial residual = 0.0403761, Final residual = 4.3035e-06, No Iterations 4
smoothSolver:  Solving for Uy, Initial residual = 0.0472935, Final residual = 6.79081e-06, No Iterations 4
DICPCG:  Solving for p, Initial residual = 0.0304196, Final residual = 0.0014852, No Iterations 74
time step continuity errors : sum local = 9.38654e-08, global = 5.4494e-21, cumulative = -1.0071e-20
DICPCG:  Solving for p, Initial residual = 0.0128323, Final residual = 9.76505e-07, No Iterations 228
time step continuity errors : sum local = 6.22222e-11, global = -4.79865e-21, cumulative = -1.48696e-20
ExecutionTime = 0.93 s  ClockTime = 1 s

Time = 0.005

Courant Number mean: 0.0103729 max: 0.468946
smoothSolver:  Solving for Ux, Initial residual = 0.0337059, Final residual = 3.68453e-06, No Iterations 4
smoothSolver:  Solving for Uy, Initial residual = 0.0393661, Final residual = 5.68061e-06, No Iterations 4
DICPCG:  Solving for p, Initial residual = 0.0249891, Final residual = 0.00118096, No Iterations 73
time step continuity errors : sum local = 7.61621e-08, global = -1.18484e-20, cumulative = -2.6718e-20
DICPCG:  Solving for p, Initial residual = 0.0108457, Final residual = 9.41622e-07, No Iterations 227
time step continuity errors : sum local = 6.16396e-11, global = -3.60164e-21, cumulative = -3.03197e-20
ExecutionTime = 1.04 s  ClockTime = 1 s

Time = 0.005625

Courant Number mean: 0.0111176 max: 0.481052
smoothSolver:  Solving for Ux, Initial residual = 0.0289472, Final residual = 3.22594e-06, No Iterations 4
smoothSolver:  Solving for Uy, Initial residual = 0.0336897, Final residual = 4.88e-06, No Iterations 4
DICPCG:  Solving for p, Initial residual = 0.0211934, Final residual = 0.00105579, No Iterations 71
time step continuity errors : sum local = 7.01562e-08, global = -8.07186e-21, cumulative = -3.83915e-20
DICPCG:  Solving for p, Initial residual = 0.00924494, Final residual = 9.78932e-07, No Iterations 176
time step continuity errors : sum local = 6.60521e-11, global = 2.30045e-20, cumulative = -1.5387e-20
ExecutionTime = 1.13 s  ClockTime = 1 s

Time = 0.00625

Courant Number mean: 0.0118035 max: 0.490637
smoothSolver:  Solving for Ux, Initial residual = 0.025386, Final residual = 2.87243e-06, No Iterations 4
smoothSolver:  Solving for Uy, Initial residual = 0.0294344, Final residual = 4.27601e-06, No Iterations 4
DICPCG:  Solving for p, Initial residual = 0.018476, Final residual = 0.000909736, No Iterations 70
time step continuity errors : sum local = 6.13754e-08, global = 3.20271e-20, cumulative = 1.66401e-20
DICPCG:  Solving for p, Initial residual = 0.00816017, Final residual = 9.60575e-07, No Iterations 222
time step continuity errors : sum local = 6.5405e-11, global = -6.81608e-21, cumulative = 9.824e-21
ExecutionTime = 1.23 s  ClockTime = 1 s

Time = 0.006875

Courant Number mean: 0.0124441 max: 0.498441
smoothSolver:  Solving for Ux, Initial residual = 0.0225924, Final residual = 2.58975e-06, No Iterations 4
smoothSolver:  Solving for Uy, Initial residual = 0.0261368, Final residual = 3.80538e-06, No Iterations 4
DICPCG:  Solving for p, Initial residual = 0.0164495, Final residual = 0.000798066, No Iterations 69
time step continuity errors : sum local = 5.48864e-08, global = -2.2554e-21, cumulative = 7.5686e-21
DICPCG:  Solving for p, Initial residual = 0.00731759, Final residual = 9.58437e-07, No Iterations 221
time step continuity errors : sum local = 6.62441e-11, global = 1.63619e-20, cumulative = 2.39305e-20
ExecutionTime = 1.34 s  ClockTime = 1 s

Time = 0.0075

Courant Number mean: 0.0130429 max: 0.504948
smoothSolver:  Solving for Ux, Initial residual = 0.0203475, Final residual = 2.36085e-06, No Iterations 4
smoothSolver:  Solving for Uy, Initial residual = 0.0235041, Final residual = 3.42788e-06, No Iterations 4
DICPCG:  Solving for p, Initial residual = 0.0148483, Final residual = 0.00072137, No Iterations 68
time step continuity errors : sum local = 5.01659e-08, global = -1.26453e-20, cumulative = 1.12852e-20
DICPCG:  Solving for p, Initial residual = 0.00666154, Final residual = 9.56282e-07, No Iterations 220
time step continuity errors : sum local = 6.68767e-11, global = -4.53742e-21, cumulative = 6.74776e-21
ExecutionTime = 1.44 s  ClockTime = 1 s

Time = 0.008125

Courant Number mean: 0.0136051 max: 0.510481
smoothSolver:  Solving for Ux, Initial residual = 0.0185223, Final residual = 2.17e-06, No Iterations 4
smoothSolver:  Solving for Uy, Initial residual = 0.0213559, Final residual = 3.11853e-06, No Iterations 4
DICPCG:  Solving for p, Initial residual = 0.0135822, Final residual = 0.000671886, No Iterations 67
time step continuity errors : sum local = 4.73214e-08, global = 4.90203e-20, cumulative = 5.57681e-20
DICPCG:  Solving for p, Initial residual = 0.00614271, Final residual = 8.77166e-07, No Iterations 220
time step continuity errors : sum local = 6.19807e-11, global = 1.87555e-20, cumulative = 7.45236e-20
ExecutionTime = 1.55 s  ClockTime = 1 s

Time = 0.00875

Courant Number mean: 0.0141346 max: 0.51526
smoothSolver:  Solving for Ux, Initial residual = 0.0170012, Final residual = 2.0082e-06, No Iterations 4
smoothSolver:  Solving for Uy, Initial residual = 0.0195665, Final residual = 2.86012e-06, No Iterations 4
DICPCG:  Solving for p, Initial residual = 0.0125973, Final residual = 0.000629755, No Iterations 66
time step continuity errors : sum local = 4.47318e-08, global = -2.8239e-20, cumulative = 4.62846e-20
DICPCG:  Solving for p, Initial residual = 0.00572849, Final residual = 9.38691e-07, No Iterations 219
time step continuity errors : sum local = 6.68953e-11, global = -2.93242e-21, cumulative = 4.33522e-20
ExecutionTime = 1.65 s  ClockTime = 1 s

Time = 0.009375

Courant Number mean: 0.0146356 max: 0.519445
smoothSolver:  Solving for Ux, Initial residual = 0.0157065, Final residual = 1.86889e-06, No Iterations 4
smoothSolver:  Solving for Uy, Initial residual = 0.0180537, Final residual = 2.64104e-06, No Iterations 4
DICPCG:  Solving for p, Initial residual = 0.011645, Final residual = 0.000555084, No Iterations 66
time step continuity errors : sum local = 3.97869e-08, global = 5.42833e-21, cumulative = 4.87805e-20
DICPCG:  Solving for p, Initial residual = 0.00536515, Final residual = 8.68997e-07, No Iterations 219
time step continuity errors : sum local = 6.24031e-11, global = 2.74666e-20, cumulative = 7.62471e-20
ExecutionTime = 1.75 s  ClockTime = 2 s

Time = 0.01

Courant Number mean: 0.0151144 max: 0.523151
smoothSolver:  Solving for Ux, Initial residual = 0.0145927, Final residual = 1.7479e-06, No Iterations 4
smoothSolver:  Solving for Uy, Initial residual = 0.0167578, Final residual = 2.45282e-06, No Iterations 4
DICPCG:  Solving for p, Initial residual = 0.010912, Final residual = 0.000532874, No Iterations 65
time step continuity errors : sum local = 3.84488e-08, global = 1.90537e-20, cumulative = 9.53009e-20
DICPCG:  Solving for p, Initial residual = 0.00503378, Final residual = 9.31041e-07, No Iterations 218
time step continuity errors : sum local = 6.72817e-11, global = -1.64336e-20, cumulative = 7.88673e-20
ExecutionTime = 1.86 s  ClockTime = 2 s

Time = 0.010625

Courant Number mean: 0.0155762 max: 0.526464
smoothSolver:  Solving for Ux, Initial residual = 0.013631, Final residual = 1.64251e-06, No Iterations 4
smoothSolver:  Solving for Uy, Initial residual = 0.0156349, Final residual = 2.2894e-06, No Iterations 4
DICPCG:  Solving for p, Initial residual = 0.0102904, Final residual = 0.000508537, No Iterations 64
time step continuity errors : sum local = 3.69369e-08, global = -1.32872e-21, cumulative = 7.75385e-20
DICPCG:  Solving for p, Initial residual = 0.00478419, Final residual = 9.6143e-07, No Iterations 217
time step continuity errors : sum local = 6.99119e-11, global = 2.1654e-21, cumulative = 7.97039e-20
ExecutionTime = 1.97 s  ClockTime = 2 s

Time = 0.01125

Courant Number mean: 0.0160194 max: 0.529449
smoothSolver:  Solving for Ux, Initial residual = 0.0127862, Final residual = 1.54905e-06, No Iterations 4
smoothSolver:  Solving for Uy, Initial residual = 0.0146523, Final residual = 2.14614e-06, No Iterations 4
DICPCG:  Solving for p, Initial residual = 0.00973656, Final residual = 0.000460194, No Iterations 64
time step continuity errors : sum local = 3.3611e-08, global = -8.2744e-21, cumulative = 7.14295e-20
DICPCG:  Solving for p, Initial residual = 0.00455364, Final residual = 8.99182e-07, No Iterations 217
time step continuity errors : sum local = 6.57404e-11, global = 2.06493e-20, cumulative = 9.20788e-20
ExecutionTime = 2.07 s  ClockTime = 2 s

Time = 0.011875

Courant Number mean: 0.0164453 max: 0.532157
smoothSolver:  Solving for Ux, Initial residual = 0.0120373, Final residual = 1.46552e-06, No Iterations 4
smoothSolver:  Solving for Uy, Initial residual = 0.0137855, Final residual = 2.01953e-06, No Iterations 4
DICPCG:  Solving for p, Initial residual = 0.00924342, Final residual = 0.000448237, No Iterations 63
time step continuity errors : sum local = 3.29082e-08, global = -1.18808e-21, cumulative = 9.08907e-20
DICPCG:  Solving for p, Initial residual = 0.00431237, Final residual = 9.50887e-07, No Iterations 216
time step continuity errors : sum local = 6.98632e-11, global = -1.43379e-20, cumulative = 7.65528e-20
ExecutionTime = 2.17 s  ClockTime = 2 s

Time = 0.0125

Courant Number mean: 0.0168548 max: 0.534629
smoothSolver:  Solving for Ux, Initial residual = 0.0113666, Final residual = 1.39024e-06, No Iterations 4
smoothSolver:  Solving for Uy, Initial residual = 0.0130147, Final residual = 1.90684e-06, No Iterations 4
DICPCG:  Solving for p, Initial residual = 0.00880978, Final residual = 0.000410795, No Iterations 63
time step continuity errors : sum local = 3.02995e-08, global = -1.50569e-20, cumulative = 6.14959e-20
DICPCG:  Solving for p, Initial residual = 0.004135, Final residual = 9.01616e-07, No Iterations 216
time step continuity errors : sum local = 6.65449e-11, global = 4.48468e-21, cumulative = 6.59806e-20
ExecutionTime = 2.27 s  ClockTime = 2 s

Time = 0.013125

Courant Number mean: 0.0172495 max: 0.536898
smoothSolver:  Solving for Ux, Initial residual = 0.0107639, Final residual = 1.32209e-06, No Iterations 4
smoothSolver:  Solving for Uy, Initial residual = 0.0123256, Final residual = 1.80588e-06, No Iterations 4
DICPCG:  Solving for p, Initial residual = 0.0084062, Final residual = 0.000406094, No Iterations 62
time step continuity errors : sum local = 3.00823e-08, global = 9.28892e-21, cumulative = 7.52695e-20
DICPCG:  Solving for p, Initial residual = 0.00395512, Final residual = 8.54426e-07, No Iterations 216
time step continuity errors : sum local = 6.33238e-11, global = -1.34126e-22, cumulative = 7.51354e-20
ExecutionTime = 2.37 s  ClockTime = 2 s

Time = 0.01375

Courant Number mean: 0.0176299 max: 0.538991
smoothSolver:  Solving for Ux, Initial residual = 0.010226, Final residual = 1.26012e-06, No Iterations 4
smoothSolver:  Solving for Uy, Initial residual = 0.0117055, Final residual = 1.71493e-06, No Iterations 4
DICPCG:  Solving for p, Initial residual = 0.00805193, Final residual = 0.000402064, No Iterations 61
time step continuity errors : sum local = 2.98981e-08, global = 6.27078e-22, cumulative = 7.57625e-20
DICPCG:  Solving for p, Initial residual = 0.00381358, Final residual = 9.88604e-07, No Iterations 215
time step continuity errors : sum local = 7.35398e-11, global = 2.5872e-20, cumulative = 1.01634e-19
ExecutionTime = 2.47 s  ClockTime = 2 s

Time = 0.014375

Courant Number mean: 0.0179968 max: 0.540928
smoothSolver:  Solving for Ux, Initial residual = 0.00974068, Final residual = 1.20428e-06, No Iterations 4
smoothSolver:  Solving for Uy, Initial residual = 0.0111444, Final residual = 1.63258e-06, No Iterations 4
DICPCG:  Solving for p, Initial residual = 0.00775094, Final residual = 0.000376573, No Iterations 61
time step continuity errors : sum local = 2.80985e-08, global = -3.94301e-20, cumulative = 6.22044e-20
DICPCG:  Solving for p, Initial residual = 0.00368651, Final residual = 9.50675e-07, No Iterations 215
time step continuity errors : sum local = 7.09314e-11, global = -1.96924e-20, cumulative = 4.2512e-20
ExecutionTime = 2.57 s  ClockTime = 2 s

Time = 0.015

Courant Number mean: 0.0183529 max: 0.542728
smoothSolver:  Solving for Ux, Initial residual = 0.00929942, Final residual = 1.15358e-06, No Iterations 4
smoothSolver:  Solving for Uy, Initial residual = 0.0106346, Final residual = 1.55767e-06, No Iterations 4
DICPCG:  Solving for p, Initial residual = 0.00746599, Final residual = 0.000369407, No Iterations 60
time step continuity errors : sum local = 2.76496e-08, global = 1.02606e-20, cumulative = 5.27727e-20
DICPCG:  Solving for p, Initial residual = 0.00352831, Final residual = 9.19412e-07, No Iterations 215
time step continuity errors : sum local = 6.88229e-11, global = -1.5282e-20, cumulative = 3.74907e-20
ExecutionTime = 2.68 s  ClockTime = 2 s

Time = 0.015625

Courant Number mean: 0.0187012 max: 0.544408
smoothSolver:  Solving for Ux, Initial residual = 0.00889307, Final residual = 1.10675e-06, No Iterations 4
smoothSolver:  Solving for Uy, Initial residual = 0.0101693, Final residual = 1.48922e-06, No Iterations 4
DICPCG:  Solving for p, Initial residual = 0.00721374, Final residual = 0.00034732, No Iterations 60
time step continuity errors : sum local = 2.60765e-08, global = 6.97732e-22, cumulative = 3.81884e-20
DICPCG:  Solving for p, Initial residual = 0.00343356, Final residual = 8.87677e-07, No Iterations 215
time step continuity errors : sum local = 6.66368e-11, global = -6.38997e-21, cumulative = 3.17985e-20
ExecutionTime = 2.78 s  ClockTime = 3 s

Time = 0.01625

Courant Number mean: 0.0190403 max: 0.54598
smoothSolver:  Solving for Ux, Initial residual = 0.00851774, Final residual = 9.94881e-06, No Iterations 3
smoothSolver:  Solving for Uy, Initial residual = 0.00974311, Final residual = 1.42646e-06, No Iterations 4
DICPCG:  Solving for p, Initial residual = 0.00697502, Final residual = 0.000345632, No Iterations 59
time step continuity errors : sum local = 2.60225e-08, global = 5.77552e-21, cumulative = 3.7574e-20
DICPCG:  Solving for p, Initial residual = 0.00330894, Final residual = 8.70726e-07, No Iterations 215
time step continuity errors : sum local = 6.55414e-11, global = 1.27825e-20, cumulative = 5.03565e-20
ExecutionTime = 2.88 s  ClockTime = 3 s

Time = 0.016875

Courant Number mean: 0.0193701 max: 0.547454
smoothSolver:  Solving for Ux, Initial residual = 0.00817015, Final residual = 9.5689e-06, No Iterations 3
smoothSolver:  Solving for Uy, Initial residual = 0.00935123, Final residual = 1.36871e-06, No Iterations 4
DICPCG:  Solving for p, Initial residual = 0.00680832, Final residual = 0.000328312, No Iterations 59
time step continuity errors : sum local = 2.47816e-08, global = -2.82566e-20, cumulative = 2.21e-20
DICPCG:  Solving for p, Initial residual = 0.00322899, Final residual = 8.45164e-07, No Iterations 215
time step continuity errors : sum local = 6.37772e-11, global = -1.89539e-20, cumulative = 3.14608e-21
ExecutionTime = 2.98 s  ClockTime = 3 s

Time = 0.0175

Courant Number mean: 0.0196918 max: 0.548841
smoothSolver:  Solving for Ux, Initial residual = 0.00785195, Final residual = 9.21514e-06, No Iterations 3
smoothSolver:  Solving for Uy, Initial residual = 0.00898974, Final residual = 1.3154e-06, No Iterations 4
DICPCG:  Solving for p, Initial residual = 0.0065628, Final residual = 0.000310858, No Iterations 59
time step continuity errors : sum local = 2.3523e-08, global = 9.97472e-21, cumulative = 1.31208e-20
DICPCG:  Solving for p, Initial residual = 0.00311366, Final residual = 8.19354e-07, No Iterations 215
time step continuity errors : sum local = 6.1977e-11, global = 2.2618e-20, cumulative = 3.57388e-20
ExecutionTime = 3.08 s  ClockTime = 3 s

Time = 0.018125

Courant Number mean: 0.0200049 max: 0.550149
smoothSolver:  Solving for Ux, Initial residual = 0.00755796, Final residual = 8.88457e-06, No Iterations 3
smoothSolver:  Solving for Uy, Initial residual = 0.00865525, Final residual = 1.26605e-06, No Iterations 4
DICPCG:  Solving for p, Initial residual = 0.00636384, Final residual = 0.0002972, No Iterations 59
time step continuity errors : sum local = 2.25411e-08, global = 1.48508e-20, cumulative = 5.05895e-20
DICPCG:  Solving for p, Initial residual = 0.00302496, Final residual = 9.76889e-07, No Iterations 214
time step continuity errors : sum local = 7.40601e-11, global = 1.26963e-20, cumulative = 6.32858e-20
ExecutionTime = 3.17 s  ClockTime = 3 s

Time = 0.01875

Courant Number mean: 0.0203098 max: 0.551386
smoothSolver:  Solving for Ux, Initial residual = 0.00728468, Final residual = 8.57509e-06, No Iterations 3
smoothSolver:  Solving for Uy, Initial residual = 0.00834499, Final residual = 1.22022e-06, No Iterations 4
DICPCG:  Solving for p, Initial residual = 0.00618372, Final residual = 0.000304676, No Iterations 58
time step continuity errors : sum local = 2.31559e-08, global = -1.62458e-20, cumulative = 4.70401e-20
DICPCG:  Solving for p, Initial residual = 0.00293295, Final residual = 9.42716e-07, No Iterations 214
time step continuity errors : sum local = 7.16199e-11, global = 6.8115e-21, cumulative = 5.38516e-20
ExecutionTime = 3.27 s  ClockTime = 3 s

Time = 0.019375

Courant Number mean: 0.0206069 max: 0.552556
smoothSolver:  Solving for Ux, Initial residual = 0.00702934, Final residual = 8.28682e-06, No Iterations 3
smoothSolver:  Solving for Uy, Initial residual = 0.0080564, Final residual = 1.17756e-06, No Iterations 4
DICPCG:  Solving for p, Initial residual = 0.00604196, Final residual = 0.000295132, No Iterations 58
time step continuity errors : sum local = 2.2476e-08, global = -1.33732e-20, cumulative = 4.04783e-20
DICPCG:  Solving for p, Initial residual = 0.00287037, Final residual = 9.13178e-07, No Iterations 214
time step continuity errors : sum local = 6.9515e-11, global = 3.69502e-20, cumulative = 7.74285e-20
ExecutionTime = 3.37 s  ClockTime = 3 s

Time = 0.02

Courant Number mean: 0.0208964 max: 0.553667
smoothSolver:  Solving for Ux, Initial residual = 0.00679039, Final residual = 8.01903e-06, No Iterations 3
smoothSolver:  Solving for Uy, Initial residual = 0.00778723, Final residual = 1.13776e-06, No Iterations 4
DICPCG:  Solving for p, Initial residual = 0.00585316, Final residual = 0.00028065, No Iterations 58
time step continuity errors : sum local = 2.14147e-08, global = -1.16408e-22, cumulative = 7.73121e-20
DICPCG:  Solving for p, Initial residual = 0.00278895, Final residual = 8.80638e-07, No Iterations 214
time step continuity errors : sum local = 6.71661e-11, global = 2.27363e-20, cumulative = 1.00048e-19
ExecutionTime = 3.47 s  ClockTime = 3 s

Time = 0.020625

Courant Number mean: 0.0211791 max: 0.554724
smoothSolver:  Solving for Ux, Initial residual = 0.00656607, Final residual = 7.76947e-06, No Iterations 3
smoothSolver:  Solving for Uy, Initial residual = 0.00753552, Final residual = 1.10055e-06, No Iterations 4
DICPCG:  Solving for p, Initial residual = 0.00577068, Final residual = 0.000285711, No Iterations 57
time step continuity errors : sum local = 2.184e-08, global = -2.91751e-20, cumulative = 7.08733e-20
DICPCG:  Solving for p, Initial residual = 0.00272695, Final residual = 8.58854e-07, No Iterations 214
time step continuity errors : sum local = 6.56271e-11, global = -1.29863e-20, cumulative = 5.78871e-20
ExecutionTime = 3.57 s  ClockTime = 3 s

Time = 0.02125

Courant Number mean: 0.021455 max: 0.55573
smoothSolver:  Solving for Ux, Initial residual = 0.00635585, Final residual = 7.53484e-06, No Iterations 3
smoothSolver:  Solving for Uy, Initial residual = 0.00729986, Final residual = 9.6921e-06, No Iterations 3
DICPCG:  Solving for p, Initial residual = 0.00562593, Final residual = 0.000272142, No Iterations 57
time step continuity errors : sum local = 2.08396e-08, global = 2.22566e-21, cumulative = 6.01127e-20
DICPCG:  Solving for p, Initial residual = 0.00266628, Final residual = 8.21285e-07, No Iterations 214
time step continuity errors : sum local = 6.2873e-11, global = -2.76301e-20, cumulative = 3.24826e-20
ExecutionTime = 3.67 s  ClockTime = 3 s

Time = 0.021875

Courant Number mean: 0.0217266 max: 0.556688
smoothSolver:  Solving for Ux, Initial residual = 0.00616, Final residual = 7.31317e-06, No Iterations 3
smoothSolver:  Solving for Uy, Initial residual = 0.00707882, Final residual = 9.39525e-06, No Iterations 3
DICPCG:  Solving for p, Initial residual = 0.00544249, Final residual = 0.000262283, No Iterations 57
time step continuity errors : sum local = 2.01226e-08, global = -1.56177e-20, cumulative = 1.68649e-20
DICPCG:  Solving for p, Initial residual = 0.00260196, Final residual = 9.9308e-07, No Iterations 213
time step continuity errors : sum local = 7.61553e-11, global = -1.44929e-20, cumulative = 2.37196e-21
ExecutionTime = 3.76 s  ClockTime = 4 s

Time = 0.0225

Courant Number mean: 0.0219935 max: 0.557605
smoothSolver:  Solving for Ux, Initial residual = 0.00597526, Final residual = 7.10242e-06, No Iterations 3
smoothSolver:  Solving for Uy, Initial residual = 0.00687105, Final residual = 9.11597e-06, No Iterations 3
DICPCG:  Solving for p, Initial residual = 0.0053293, Final residual = 0.000264548, No Iterations 56
time step continuity errors : sum local = 2.03292e-08, global = -3.63198e-20, cumulative = -3.39478e-20
DICPCG:  Solving for p, Initial residual = 0.00253909, Final residual = 9.57981e-07, No Iterations 213
time step continuity errors : sum local = 7.35878e-11, global = -2.20294e-20, cumulative = -5.59772e-20
ExecutionTime = 3.86 s  ClockTime = 4 s

Time = 0.023125

Courant Number mean: 0.0222555 max: 0.558482
smoothSolver:  Solving for Ux, Initial residual = 0.00580044, Final residual = 6.90179e-06, No Iterations 3
smoothSolver:  Solving for Uy, Initial residual = 0.00667539, Final residual = 8.85288e-06, No Iterations 3
DICPCG:  Solving for p, Initial residual = 0.00522238, Final residual = 0.000255123, No Iterations 56
time step continuity errors : sum local = 1.96372e-08, global = 1.3728e-20, cumulative = -4.22492e-20
DICPCG:  Solving for p, Initial residual = 0.00250041, Final residual = 9.22015e-07, No Iterations 213
time step continuity errors : sum local = 7.09405e-11, global = -4.60229e-21, cumulative = -4.68514e-20
ExecutionTime = 3.96 s  ClockTime = 4 s

Time = 0.02375

Courant Number mean: 0.0225125 max: 0.559321
smoothSolver:  Solving for Ux, Initial residual = 0.00563482, Final residual = 6.71131e-06, No Iterations 3
smoothSolver:  Solving for Uy, Initial residual = 0.00649079, Final residual = 8.60464e-06, No Iterations 3
DICPCG:  Solving for p, Initial residual = 0.00511799, Final residual = 0.000246264, No Iterations 56
time step continuity errors : sum local = 1.89849e-08, global = 4.56646e-20, cumulative = -1.18688e-21
DICPCG:  Solving for p, Initial residual = 0.0024453, Final residual = 8.88543e-07, No Iterations 213
time step continuity errors : sum local = 6.8471e-11, global = -5.69885e-20, cumulative = -5.81754e-20
ExecutionTime = 4.06 s  ClockTime = 4 s

Time = 0.024375

Courant Number mean: 0.0227643 max: 0.560125
smoothSolver:  Solving for Ux, Initial residual = 0.00547784, Final residual = 6.53071e-06, No Iterations 3
smoothSolver:  Solving for Uy, Initial residual = 0.00631638, Final residual = 8.37004e-06, No Iterations 3
DICPCG:  Solving for p, Initial residual = 0.00502055, Final residual = 0.00023803, No Iterations 56
time step continuity errors : sum local = 1.83783e-08, global = 6.22153e-21, cumulative = -5.19538e-20
DICPCG:  Solving for p, Initial residual = 0.00239382, Final residual = 8.54933e-07, No Iterations 213
time step continuity errors : sum local = 6.59802e-11, global = -4.51043e-20, cumulative = -9.70581e-20
ExecutionTime = 4.16 s  ClockTime = 4 s

Time = 0.025

Courant Number mean: 0.0230114 max: 0.560898
smoothSolver:  Solving for Ux, Initial residual = 0.00532873, Final residual = 6.36035e-06, No Iterations 3
smoothSolver:  Solving for Uy, Initial residual = 0.0061514, Final residual = 8.14801e-06, No Iterations 3
DICPCG:  Solving for p, Initial residual = 0.00492395, Final residual = 0.000230451, No Iterations 56
time step continuity errors : sum local = 1.78188e-08, global = -3.16777e-20, cumulative = -1.28736e-19
DICPCG:  Solving for p, Initial residual = 0.00234422, Final residual = 8.21091e-07, No Iterations 213
time step continuity errors : sum local = 6.34624e-11, global = -9.46767e-21, cumulative = -1.38204e-19
ExecutionTime = 4.26 s  ClockTime = 4 s

Time = 0.025625

Courant Number mean: 0.0232539 max: 0.561642
smoothSolver:  Solving for Ux, Initial residual = 0.00518694, Final residual = 6.19916e-06, No Iterations 3
smoothSolver:  Solving for Uy, Initial residual = 0.00599509, Final residual = 7.93756e-06, No Iterations 3
DICPCG:  Solving for p, Initial residual = 0.00482792, Final residual = 0.000238797, No Iterations 55
time step continuity errors : sum local = 1.84888e-08, global = 3.37768e-20, cumulative = -1.04427e-19
DICPCG:  Solving for p, Initial residual = 0.00229897, Final residual = 7.83835e-07, No Iterations 213
time step continuity errors : sum local = 6.06712e-11, global = -5.11118e-21, cumulative = -1.09538e-19
ExecutionTime = 4.36 s  ClockTime = 4 s

Time = 0.02625

Courant Number mean: 0.0234919 max: 0.562356
smoothSolver:  Solving for Ux, Initial residual = 0.00505186, Final residual = 6.04601e-06, No Iterations 3
smoothSolver:  Solving for Uy, Initial residual = 0.00584671, Final residual = 7.73794e-06, No Iterations 3
DICPCG:  Solving for p, Initial residual = 0.00474459, Final residual = 0.000231386, No Iterations 55
time step continuity errors : sum local = 1.79401e-08, global = -3.81224e-20, cumulative = -1.4766e-19
DICPCG:  Solving for p, Initial residual = 0.00227035, Final residual = 9.78792e-07, No Iterations 212
time step continuity errors : sum local = 7.58747e-11, global = 1.98087e-20, cumulative = -1.27852e-19
ExecutionTime = 4.45 s  ClockTime = 4 s

Time = 0.026875

Courant Number mean: 0.0237253 max: 0.563044
smoothSolver:  Solving for Ux, Initial residual = 0.0049246, Final residual = 5.90001e-06, No Iterations 3
smoothSolver:  Solving for Uy, Initial residual = 0.00570576, Final residual = 7.54817e-06, No Iterations 3
DICPCG:  Solving for p, Initial residual = 0.0046548, Final residual = 0.000224727, No Iterations 55
time step continuity errors : sum local = 1.74489e-08, global = 3.74642e-21, cumulative = -1.24105e-19
DICPCG:  Solving for p, Initial residual = 0.00223044, Final residual = 9.37394e-07, No Iterations 212
time step continuity errors : sum local = 7.27713e-11, global = -2.21214e-20, cumulative = -1.46227e-19
ExecutionTime = 4.55 s  ClockTime = 4 s

Time = 0.0275

Courant Number mean: 0.0239545 max: 0.563709
smoothSolver:  Solving for Ux, Initial residual = 0.00480358, Final residual = 5.7605e-06, No Iterations 3
smoothSolver:  Solving for Uy, Initial residual = 0.00557168, Final residual = 7.3677e-06, No Iterations 3
DICPCG:  Solving for p, Initial residual = 0.00456861, Final residual = 0.000218732, No Iterations 55
time step continuity errors : sum local = 1.70071e-08, global = 2.01365e-20, cumulative = -1.2609e-19
DICPCG:  Solving for p, Initial residual = 0.002192, Final residual = 8.95989e-07, No Iterations 212
time step continuity errors : sum local = 6.9655e-11, global = 1.79957e-20, cumulative = -1.08094e-19
ExecutionTime = 4.65 s  ClockTime = 4 s

Time = 0.028125

Courant Number mean: 0.0241792 max: 0.56435
smoothSolver:  Solving for Ux, Initial residual = 0.00468816, Final residual = 5.62688e-06, No Iterations 3
smoothSolver:  Solving for Uy, Initial residual = 0.00544413, Final residual = 7.19578e-06, No Iterations 3
DICPCG:  Solving for p, Initial residual = 0.00448554, Final residual = 0.000213161, No Iterations 55
time step continuity errors : sum local = 1.6596e-08, global = 2.14481e-20, cumulative = -8.66463e-20
DICPCG:  Solving for p, Initial residual = 0.0021555, Final residual = 8.5742e-07, No Iterations 212
time step continuity errors : sum local = 6.67481e-11, global = 1.16888e-20, cumulative = -7.49575e-20
ExecutionTime = 4.74 s  ClockTime = 5 s

Time = 0.02875

Courant Number mean: 0.0243998 max: 0.564968
smoothSolver:  Solving for Ux, Initial residual = 0.0045781, Final residual = 5.4987e-06, No Iterations 3
smoothSolver:  Solving for Uy, Initial residual = 0.00532248, Final residual = 7.03188e-06, No Iterations 3
DICPCG:  Solving for p, Initial residual = 0.00443103, Final residual = 0.000207149, No Iterations 55
time step continuity errors : sum local = 1.6149e-08, global = 3.75975e-20, cumulative = -3.736e-20
DICPCG:  Solving for p, Initial residual = 0.00212005, Final residual = 8.19404e-07, No Iterations 212
time step continuity errors : sum local = 6.3873e-11, global = 1.92394e-20, cumulative = -1.81205e-20
ExecutionTime = 4.84 s  ClockTime = 5 s

Time = 0.029375

Courant Number mean: 0.0246167 max: 0.565567
smoothSolver:  Solving for Ux, Initial residual = 0.00447266, Final residual = 5.37561e-06, No Iterations 3
smoothSolver:  Solving for Uy, Initial residual = 0.00520647, Final residual = 6.87542e-06, No Iterations 3
DICPCG:  Solving for p, Initial residual = 0.00444633, Final residual = 0.000217907, No Iterations 54
time step continuity errors : sum local = 1.70066e-08, global = 3.91918e-20, cumulative = 2.10712e-20
DICPCG:  Solving for p, Initial residual = 0.00209248, Final residual = 9.80653e-07, No Iterations 211
time step continuity errors : sum local = 7.65338e-11, global = -2.28333e-20, cumulative = -1.76209e-21
ExecutionTime = 4.94 s  ClockTime = 5 s

Time = 0.03

Courant Number mean: 0.0248306 max: 0.566146
smoothSolver:  Solving for Ux, Initial residual = 0.00437179, Final residual = 5.25743e-06, No Iterations 3
smoothSolver:  Solving for Uy, Initial residual = 0.00509559, Final residual = 6.72596e-06, No Iterations 3
DICPCG:  Solving for p, Initial residual = 0.00432514, Final residual = 0.000210342, No Iterations 54
time step continuity errors : sum local = 1.64352e-08, global = -2.76743e-20, cumulative = -2.94364e-20
DICPCG:  Solving for p, Initial residual = 0.00206974, Final residual = 9.45081e-07, No Iterations 211
time step continuity errors : sum local = 7.3843e-11, global = -2.63547e-20, cumulative = -5.57912e-20
ExecutionTime = 5.03 s  ClockTime = 5 s

Time = 0.030625

Courant Number mean: 0.025042 max: 0.566707
smoothSolver:  Solving for Ux, Initial residual = 0.00427503, Final residual = 5.14521e-06, No Iterations 3
smoothSolver:  Solving for Uy, Initial residual = 0.00498943, Final residual = 6.58306e-06, No Iterations 3
DICPCG:  Solving for p, Initial residual = 0.00442085, Final residual = 0.000219155, No Iterations 53
time step continuity errors : sum local = 1.71422e-08, global = -1.99099e-20, cumulative = -7.5701e-20
DICPCG:  Solving for p, Initial residual = 0.00203951, Final residual = 9.13945e-07, No Iterations 211
time step continuity errors : sum local = 7.14945e-11, global = -5.21965e-21, cumulative = -8.09207e-20
ExecutionTime = 5.13 s  ClockTime = 5 s

Time = 0.03125

Courant Number mean: 0.0252507 max: 0.56725
smoothSolver:  Solving for Ux, Initial residual = 0.00418176, Final residual = 5.03785e-06, No Iterations 3
smoothSolver:  Solving for Uy, Initial residual = 0.00488786, Final residual = 6.44631e-06, No Iterations 3
DICPCG:  Solving for p, Initial residual = 0.00415926, Final residual = 0.000204993, No Iterations 54
time step continuity errors : sum local = 1.60547e-08, global = -4.47793e-21, cumulative = -8.53986e-20
DICPCG:  Solving for p, Initial residual = 0.00200308, Final residual = 8.66988e-07, No Iterations 211
time step continuity errors : sum local = 6.79046e-11, global = 1.61017e-20, cumulative = -6.92969e-20
ExecutionTime = 5.22 s  ClockTime = 5 s

Time = 0.031875

Courant Number mean: 0.0254564 max: 0.567777
smoothSolver:  Solving for Ux, Initial residual = 0.00409205, Final residual = 4.93499e-06, No Iterations 3
smoothSolver:  Solving for Uy, Initial residual = 0.00479075, Final residual = 6.31538e-06, No Iterations 3
DICPCG:  Solving for p, Initial residual = 0.00409788, Final residual = 0.000200043, No Iterations 54
time step continuity errors : sum local = 1.56862e-08, global = -3.03781e-21, cumulative = -7.23347e-20
DICPCG:  Solving for p, Initial residual = 0.0019842, Final residual = 8.33459e-07, No Iterations 211
time step continuity errors : sum local = 6.53519e-11, global = 1.77294e-20, cumulative = -5.46053e-20
ExecutionTime = 5.32 s  ClockTime = 5 s

Time = 0.0325

Courant Number mean: 0.0256591 max: 0.568289
smoothSolver:  Solving for Ux, Initial residual = 0.00400639, Final residual = 4.83577e-06, No Iterations 3
smoothSolver:  Solving for Uy, Initial residual = 0.00469765, Final residual = 6.18987e-06, No Iterations 3
DICPCG:  Solving for p, Initial residual = 0.0040436, Final residual = 0.000195788, No Iterations 54
time step continuity errors : sum local = 1.53704e-08, global = -1.59412e-20, cumulative = -7.05465e-20
DICPCG:  Solving for p, Initial residual = 0.00195516, Final residual = 9.94788e-07, No Iterations 210
time step continuity errors : sum local = 7.80612e-11, global = 2.16338e-20, cumulative = -4.89127e-20
ExecutionTime = 5.42 s  ClockTime = 5 s

Time = 0.033125

Courant Number mean: 0.0258588 max: 0.568785
smoothSolver:  Solving for Ux, Initial residual = 0.00392429, Final residual = 4.7401e-06, No Iterations 3
smoothSolver:  Solving for Uy, Initial residual = 0.00460829, Final residual = 6.06937e-06, No Iterations 3
DICPCG:  Solving for p, Initial residual = 0.00398958, Final residual = 0.000191857, No Iterations 54
time step continuity errors : sum local = 1.50784e-08, global = 2.86812e-20, cumulative = -2.02315e-20
DICPCG:  Solving for p, Initial residual = 0.0019273, Final residual = 9.58672e-07, No Iterations 210
time step continuity errors : sum local = 7.53005e-11, global = 3.33197e-20, cumulative = 1.30882e-20
ExecutionTime = 5.52 s  ClockTime = 5 s

Time = 0.03375

Courant Number mean: 0.0260555 max: 0.569269
smoothSolver:  Solving for Ux, Initial residual = 0.00384537, Final residual = 4.64769e-06, No Iterations 3
smoothSolver:  Solving for Uy, Initial residual = 0.00452247, Final residual = 5.9537e-06, No Iterations 3
DICPCG:  Solving for p, Initial residual = 0.00393535, Final residual = 0.000187147, No Iterations 54
time step continuity errors : sum local = 1.47246e-08, global = 1.30598e-20, cumulative = 2.61481e-20
DICPCG:  Solving for p, Initial residual = 0.00189953, Final residual = 9.25136e-07, No Iterations 210
time step continuity errors : sum local = 7.27331e-11, global = -1.92758e-20, cumulative = 6.87229e-21
ExecutionTime = 5.61 s  ClockTime = 5 s

Time = 0.034375

Courant Number mean: 0.0262495 max: 0.569739
smoothSolver:  Solving for Ux, Initial residual = 0.00376941, Final residual = 4.55839e-06, No Iterations 3
smoothSolver:  Solving for Uy, Initial residual = 0.00443996, Final residual = 5.84245e-06, No Iterations 3
DICPCG:  Solving for p, Initial residual = 0.0038879, Final residual = 0.000183201, No Iterations 54
time step continuity errors : sum local = 1.44295e-08, global = -6.40178e-21, cumulative = 4.70504e-22
DICPCG:  Solving for p, Initial residual = 0.00187742, Final residual = 8.90453e-07, No Iterations 210
time step continuity errors : sum local = 7.00927e-11, global = 2.12067e-20, cumulative = 2.16772e-20
ExecutionTime = 5.71 s  ClockTime = 5 s

Time = 0.035

Courant Number mean: 0.0264407 max: 0.570196
smoothSolver:  Solving for Ux, Initial residual = 0.00369641, Final residual = 4.47212e-06, No Iterations 3
smoothSolver:  Solving for Uy, Initial residual = 0.00436073, Final residual = 5.73562e-06, No Iterations 3
DICPCG:  Solving for p, Initial residual = 0.00383085, Final residual = 0.000180942, No Iterations 54
time step continuity errors : sum local = 1.42666e-08, global = -1.74248e-20, cumulative = 4.25239e-21
DICPCG:  Solving for p, Initial residual = 0.00185273, Final residual = 8.61855e-07, No Iterations 210
time step continuity errors : sum local = 6.79258e-11, global = -1.44678e-20, cumulative = -1.02154e-20
ExecutionTime = 5.81 s  ClockTime = 6 s

Time = 0.035625

Courant Number mean: 0.0266291 max: 0.570641
smoothSolver:  Solving for Ux, Initial residual = 0.00362593, Final residual = 4.3888e-06, No Iterations 3
smoothSolver:  Solving for Uy, Initial residual = 0.00428439, Final residual = 5.63276e-06, No Iterations 3
DICPCG:  Solving for p, Initial residual = 0.00378154, Final residual = 0.000177738, No Iterations 54
time step continuity errors : sum local = 1.40286e-08, global = 4.06226e-20, cumulative = 3.04072e-20
DICPCG:  Solving for p, Initial residual = 0.0018299, Final residual = 8.42062e-07, No Iterations 210
time step continuity errors : sum local = 6.6448e-11, global = 1.82916e-20, cumulative = 4.86988e-20
ExecutionTime = 5.9 s  ClockTime = 6 s

Time = 0.03625

Courant Number mean: 0.0268149 max: 0.571076
smoothSolver:  Solving for Ux, Initial residual = 0.00355783, Final residual = 4.30853e-06, No Iterations 3
smoothSolver:  Solving for Uy, Initial residual = 0.00421091, Final residual = 5.53368e-06, No Iterations 3
DICPCG:  Solving for p, Initial residual = 0.00373237, Final residual = 0.000174704, No Iterations 54
time step continuity errors : sum local = 1.38033e-08, global = 1.29674e-20, cumulative = 6.16662e-20
DICPCG:  Solving for p, Initial residual = 0.00180805, Final residual = 8.36891e-07, No Iterations 210
time step continuity errors : sum local = 6.61181e-11, global = -1.43665e-20, cumulative = 4.72997e-20
ExecutionTime = 6 s  ClockTime = 6 s

Time = 0.036875

Courant Number mean: 0.0269979 max: 0.571498
smoothSolver:  Solving for Ux, Initial residual = 0.00349195, Final residual = 4.23162e-06, No Iterations 3
smoothSolver:  Solving for Uy, Initial residual = 0.00414007, Final residual = 5.43822e-06, No Iterations 3
DICPCG:  Solving for p, Initial residual = 0.00368434, Final residual = 0.000183121, No Iterations 53
time step continuity errors : sum local = 1.44813e-08, global = -2.58852e-20, cumulative = 2.14145e-20
DICPCG:  Solving for p, Initial residual = 0.00178636, Final residual = 8.53244e-07, No Iterations 210
time step continuity errors : sum local = 6.74867e-11, global = -5.30645e-20, cumulative = -3.165e-20
ExecutionTime = 6.09 s  ClockTime = 6 s

Time = 0.0375

Courant Number mean: 0.0271781 max: 0.571912
smoothSolver:  Solving for Ux, Initial residual = 0.00342807, Final residual = 4.15746e-06, No Iterations 3
smoothSolver:  Solving for Uy, Initial residual = 0.00407169, Final residual = 5.34614e-06, No Iterations 3
DICPCG:  Solving for p, Initial residual = 0.00368643, Final residual = 0.000177168, No Iterations 53
time step continuity errors : sum local = 1.40241e-08, global = -3.76864e-20, cumulative = -6.93364e-20
DICPCG:  Solving for p, Initial residual = 0.0017778, Final residual = 8.80202e-07, No Iterations 210
time step continuity errors : sum local = 6.96957e-11, global = 3.75028e-21, cumulative = -6.55861e-20
ExecutionTime = 6.18 s  ClockTime = 6 s

Time = 0.038125

Courant Number mean: 0.0273561 max: 0.572316
smoothSolver:  Solving for Ux, Initial residual = 0.00336642, Final residual = 4.08584e-06, No Iterations 3
smoothSolver:  Solving for Uy, Initial residual = 0.00400585, Final residual = 5.25729e-06, No Iterations 3
DICPCG:  Solving for p, Initial residual = 0.00361089, Final residual = 0.000176642, No Iterations 53
time step continuity errors : sum local = 1.39959e-08, global = -2.56629e-20, cumulative = -9.12491e-20
DICPCG:  Solving for p, Initial residual = 0.00175911, Final residual = 8.9509e-07, No Iterations 210
time step continuity errors : sum local = 7.09492e-11, global = -6.63905e-21, cumulative = -9.78881e-20
ExecutionTime = 6.28 s  ClockTime = 6 s

Time = 0.03875

Courant Number mean: 0.0275316 max: 0.572709
smoothSolver:  Solving for Ux, Initial residual = 0.00330739, Final residual = 4.0166e-06, No Iterations 3
smoothSolver:  Solving for Uy, Initial residual = 0.00394224, Final residual = 5.17153e-06, No Iterations 3
DICPCG:  Solving for p, Initial residual = 0.00363541, Final residual = 0.000171853, No Iterations 53
time step continuity errors : sum local = 1.36302e-08, global = -1.53924e-20, cumulative = -1.1328e-19
DICPCG:  Solving for p, Initial residual = 0.00173927, Final residual = 9.17537e-07, No Iterations 210
time step continuity errors : sum local = 7.28052e-11, global = 2.04303e-20, cumulative = -9.28502e-20
ExecutionTime = 6.37 s  ClockTime = 6 s

Time = 0.039375

Courant Number mean: 0.0277046 max: 0.573096
smoothSolver:  Solving for Ux, Initial residual = 0.0032505, Final residual = 3.94957e-06, No Iterations 3
smoothSolver:  Solving for Uy, Initial residual = 0.00388078, Final residual = 5.08862e-06, No Iterations 3
DICPCG:  Solving for p, Initial residual = 0.00352427, Final residual = 0.000171466, No Iterations 53
time step continuity errors : sum local = 1.36127e-08, global = -8.66705e-21, cumulative = -1.01517e-19
DICPCG:  Solving for p, Initial residual = 0.00172079, Final residual = 9.45559e-07, No Iterations 210
time step continuity errors : sum local = 7.5104e-11, global = 1.64832e-20, cumulative = -8.5034e-20
ExecutionTime = 6.48 s  ClockTime = 6 s

Time = 0.04

Courant Number mean: 0.027875 max: 0.573473
smoothSolver:  Solving for Ux, Initial residual = 0.00319566, Final residual = 3.88452e-06, No Iterations 3
smoothSolver:  Solving for Uy, Initial residual = 0.00382148, Final residual = 5.0086e-06, No Iterations 3
DICPCG:  Solving for p, Initial residual = 0.0034884, Final residual = 0.000168641, No Iterations 53
time step continuity errors : sum local = 1.34014e-08, global = 1.39362e-20, cumulative = -7.10978e-20
DICPCG:  Solving for p, Initial residual = 0.00170257, Final residual = 9.66063e-07, No Iterations 210
time step continuity errors : sum local = 7.68083e-11, global = 1.35786e-20, cumulative = -5.75192e-20
ExecutionTime = 6.57 s  ClockTime = 6 s

Time = 0.040625

Courant Number mean: 0.0280444 max: 0.573843
smoothSolver:  Solving for Ux, Initial residual = 0.00314249, Final residual = 3.8214e-06, No Iterations 3
smoothSolver:  Solving for Uy, Initial residual = 0.00376412, Final residual = 4.93127e-06, No Iterations 3
DICPCG:  Solving for p, Initial residual = 0.00345148, Final residual = 0.000166153, No Iterations 53
time step continuity errors : sum local = 1.32161e-08, global = -1.51529e-20, cumulative = -7.26721e-20
DICPCG:  Solving for p, Initial residual = 0.0016848, Final residual = 9.81549e-07, No Iterations 210
time step continuity errors : sum local = 7.81145e-11, global = -1.30775e-20, cumulative = -8.57496e-20
ExecutionTime = 6.67 s  ClockTime = 6 s

Time = 0.04125

Courant Number mean: 0.0282121 max: 0.574204
smoothSolver:  Solving for Ux, Initial residual = 0.00309083, Final residual = 3.76019e-06, No Iterations 3
smoothSolver:  Solving for Uy, Initial residual = 0.00370859, Final residual = 4.85642e-06, No Iterations 3
DICPCG:  Solving for p, Initial residual = 0.00341604, Final residual = 0.000163651, No Iterations 53
time step continuity errors : sum local = 1.30289e-08, global = 3.44568e-20, cumulative = -5.12928e-20
DICPCG:  Solving for p, Initial residual = 0.00166715, Final residual = 9.93821e-07, No Iterations 210
time step continuity errors : sum local = 7.91641e-11, global = -6.91905e-21, cumulative = -5.82118e-20
ExecutionTime = 6.76 s  ClockTime = 7 s

Time = 0.041875

Courant Number mean: 0.0283781 max: 0.57456
smoothSolver:  Solving for Ux, Initial residual = 0.00304052, Final residual = 3.70067e-06, No Iterations 3
smoothSolver:  Solving for Uy, Initial residual = 0.0036549, Final residual = 4.78404e-06, No Iterations 3
DICPCG:  Solving for p, Initial residual = 0.00338285, Final residual = 0.000161307, No Iterations 53
time step continuity errors : sum local = 1.28537e-08, global = 7.82956e-22, cumulative = -5.74289e-20
DICPCG:  Solving for p, Initial residual = 0.00164947, Final residual = 8.25461e-07, No Iterations 211
time step continuity errors : sum local = 6.57974e-11, global = 2.10003e-20, cumulative = -3.64286e-20
ExecutionTime = 6.86 s  ClockTime = 7 s

Time = 0.0425

Courant Number mean: 0.028542 max: 0.574908
smoothSolver:  Solving for Ux, Initial residual = 0.00299174, Final residual = 3.64291e-06, No Iterations 3
smoothSolver:  Solving for Uy, Initial residual = 0.00360282, Final residual = 4.71391e-06, No Iterations 3
DICPCG:  Solving for p, Initial residual = 0.00334897, Final residual = 0.000159014, No Iterations 53
time step continuity errors : sum local = 1.26821e-08, global = -4.01019e-20, cumulative = -7.65304e-20
DICPCG:  Solving for p, Initial residual = 0.00163267, Final residual = 8.32018e-07, No Iterations 211
time step continuity errors : sum local = 6.6379e-11, global = 2.1201e-20, cumulative = -5.53294e-20
ExecutionTime = 6.95 s  ClockTime = 7 s

Time = 0.043125

Courant Number mean: 0.0287042 max: 0.57525
smoothSolver:  Solving for Ux, Initial residual = 0.00294427, Final residual = 3.58671e-06, No Iterations 3
smoothSolver:  Solving for Uy, Initial residual = 0.00355238, Final residual = 4.64596e-06, No Iterations 3
DICPCG:  Solving for p, Initial residual = 0.00331386, Final residual = 0.000156782, No Iterations 53
time step continuity errors : sum local = 1.25149e-08, global = -1.94567e-20, cumulative = -7.47861e-20
DICPCG:  Solving for p, Initial residual = 0.00161627, Final residual = 8.36314e-07, No Iterations 211
time step continuity errors : sum local = 6.67811e-11, global = 5.85033e-20, cumulative = -1.62828e-20
ExecutionTime = 7.05 s  ClockTime = 7 s

Time = 0.04375

Courant Number mean: 0.0288645 max: 0.575586
smoothSolver:  Solving for Ux, Initial residual = 0.00289803, Final residual = 3.53212e-06, No Iterations 3
smoothSolver:  Solving for Uy, Initial residual = 0.0035035, Final residual = 4.58005e-06, No Iterations 3
DICPCG:  Solving for p, Initial residual = 0.0032811, Final residual = 0.000154576, No Iterations 53
time step continuity errors : sum local = 1.23494e-08, global = 5.35064e-21, cumulative = -1.09321e-20
DICPCG:  Solving for p, Initial residual = 0.00160103, Final residual = 8.39218e-07, No Iterations 211
time step continuity errors : sum local = 6.70714e-11, global = 2.37366e-20, cumulative = 1.28045e-20
ExecutionTime = 7.14 s  ClockTime = 7 s

Time = 0.044375

Courant Number mean: 0.0290233 max: 0.575916
smoothSolver:  Solving for Ux, Initial residual = 0.0028531, Final residual = 3.47931e-06, No Iterations 3
smoothSolver:  Solving for Uy, Initial residual = 0.00345608, Final residual = 4.51615e-06, No Iterations 3
DICPCG:  Solving for p, Initial residual = 0.00324806, Final residual = 0.000152532, No Iterations 53
time step continuity errors : sum local = 1.21964e-08, global = -3.43292e-20, cumulative = -2.15248e-20
DICPCG:  Solving for p, Initial residual = 0.00158578, Final residual = 8.39982e-07, No Iterations 211
time step continuity errors : sum local = 6.71897e-11, global = 4.96656e-20, cumulative = 2.81409e-20
ExecutionTime = 7.25 s  ClockTime = 7 s

Time = 0.045

Courant Number mean: 0.0291802 max: 0.576241
smoothSolver:  Solving for Ux, Initial residual = 0.00280965, Final residual = 3.42802e-06, No Iterations 3
smoothSolver:  Solving for Uy, Initial residual = 0.0034101, Final residual = 4.45419e-06, No Iterations 3
DICPCG:  Solving for p, Initial residual = 0.00321511, Final residual = 0.000150504, No Iterations 53
time step continuity errors : sum local = 1.20441e-08, global = 9.21888e-22, cumulative = 2.90628e-20
DICPCG:  Solving for p, Initial residual = 0.00157115, Final residual = 8.40046e-07, No Iterations 211
time step continuity errors : sum local = 6.72505e-11, global = 2.96603e-20, cumulative = 5.8723e-20
ExecutionTime = 7.34 s  ClockTime = 7 s

Time = 0.045625

Courant Number mean: 0.0293353 max: 0.57656
smoothSolver:  Solving for Ux, Initial residual = 0.0027677, Final residual = 3.37818e-06, No Iterations 3
smoothSolver:  Solving for Uy, Initial residual = 0.00336543, Final residual = 4.39402e-06, No Iterations 3
DICPCG:  Solving for p, Initial residual = 0.00318261, Final residual = 0.000158708, No Iterations 52
time step continuity errors : sum local = 1.27092e-08, global = -1.5832e-20, cumulative = 4.2891e-20
DICPCG:  Solving for p, Initial residual = 0.00155661, Final residual = 8.39881e-07, No Iterations 211
time step continuity errors : sum local = 6.7291e-11, global = 9.23458e-21, cumulative = 5.21256e-20
ExecutionTime = 7.44 s  ClockTime = 7 s

Time = 0.04625

Courant Number mean: 0.0294887 max: 0.576875
smoothSolver:  Solving for Ux, Initial residual = 0.00272692, Final residual = 3.32966e-06, No Iterations 3
smoothSolver:  Solving for Uy, Initial residual = 0.00332208, Final residual = 4.33563e-06, No Iterations 3
DICPCG:  Solving for p, Initial residual = 0.00315559, Final residual = 0.000156765, No Iterations 52
time step continuity errors : sum local = 1.25624e-08, global = -5.27201e-20, cumulative = -5.94468e-22
DICPCG:  Solving for p, Initial residual = 0.001553, Final residual = 8.37089e-07, No Iterations 211
time step continuity errors : sum local = 6.71204e-11, global = 8.02981e-21, cumulative = 7.43534e-21
ExecutionTime = 7.53 s  ClockTime = 7 s

Time = 0.046875

Courant Number mean: 0.0296404 max: 0.577183
smoothSolver:  Solving for Ux, Initial residual = 0.00268735, Final residual = 3.28258e-06, No Iterations 3
smoothSolver:  Solving for Uy, Initial residual = 0.00327996, Final residual = 4.27889e-06, No Iterations 3
DICPCG:  Solving for p, Initial residual = 0.00314718, Final residual = 0.000156162, No Iterations 52
time step continuity errors : sum local = 1.25238e-08, global = -1.14063e-21, cumulative = 6.29471e-21
DICPCG:  Solving for p, Initial residual = 0.00153951, Final residual = 8.36287e-07, No Iterations 211
time step continuity errors : sum local = 6.71097e-11, global = 3.37507e-21, cumulative = 9.66977e-21
ExecutionTime = 7.63 s  ClockTime = 7 s

Time = 0.0475

Courant Number mean: 0.0297902 max: 0.577488
smoothSolver:  Solving for Ux, Initial residual = 0.00264888, Final residual = 3.23676e-06, No Iterations 3
smoothSolver:  Solving for Uy, Initial residual = 0.00323897, Final residual = 4.22368e-06, No Iterations 3
DICPCG:  Solving for p, Initial residual = 0.003097, Final residual = 0.000153589, No Iterations 52
time step continuity errors : sum local = 1.23271e-08, global = -1.65883e-20, cumulative = -6.91851e-21
DICPCG:  Solving for p, Initial residual = 0.00152498, Final residual = 9.93506e-07, No Iterations 210
time step continuity errors : sum local = 7.98077e-11, global = 7.18147e-21, cumulative = 2.6296e-22
ExecutionTime = 7.72 s  ClockTime = 8 s

Time = 0.048125

Courant Number mean: 0.0299386 max: 0.577787
smoothSolver:  Solving for Ux, Initial residual = 0.00261137, Final residual = 3.19216e-06, No Iterations 3
smoothSolver:  Solving for Uy, Initial residual = 0.00319913, Final residual = 4.17e-06, No Iterations 3
DICPCG:  Solving for p, Initial residual = 0.00307296, Final residual = 0.000151611, No Iterations 52
time step continuity errors : sum local = 1.21779e-08, global = -1.29996e-20, cumulative = -1.27366e-20
DICPCG:  Solving for p, Initial residual = 0.00151267, Final residual = 9.94132e-07, No Iterations 210
time step continuity errors : sum local = 7.99196e-11, global = 3.3364e-20, cumulative = 2.06274e-20
ExecutionTime = 7.82 s  ClockTime = 8 s

Time = 0.04875

Courant Number mean: 0.0300853 max: 0.578081
smoothSolver:  Solving for Ux, Initial residual = 0.00257481, Final residual = 3.14877e-06, No Iterations 3
smoothSolver:  Solving for Uy, Initial residual = 0.00316036, Final residual = 4.11785e-06, No Iterations 3
DICPCG:  Solving for p, Initial residual = 0.00304744, Final residual = 0.000149887, No Iterations 52
time step continuity errors : sum local = 1.2049e-08, global = -2.96623e-21, cumulative = 1.76611e-20
DICPCG:  Solving for p, Initial residual = 0.00149967, Final residual = 9.87251e-07, No Iterations 210
time step continuity errors : sum local = 7.94305e-11, global = 1.78949e-20, cumulative = 3.5556e-20
ExecutionTime = 7.91 s  ClockTime = 8 s

Time = 0.049375

Courant Number mean: 0.0302303 max: 0.578371
smoothSolver:  Solving for Ux, Initial residual = 0.00253923, Final residual = 3.10645e-06, No Iterations 3
smoothSolver:  Solving for Uy, Initial residual = 0.00312264, Final residual = 4.06705e-06, No Iterations 3
DICPCG:  Solving for p, Initial residual = 0.00302202, Final residual = 0.000148152, No Iterations 52
time step continuity errors : sum local = 1.19189e-08, global = 2.29632e-20, cumulative = 5.85192e-20
DICPCG:  Solving for p, Initial residual = 0.00148715, Final residual = 9.79035e-07, No Iterations 210
time step continuity errors : sum local = 7.88341e-11, global = 1.74803e-20, cumulative = 7.59995e-20
ExecutionTime = 8 s  ClockTime = 8 s

Time = 0.05

Courant Number mean: 0.0303736 max: 0.578656
smoothSolver:  Solving for Ux, Initial residual = 0.00250453, Final residual = 3.0651e-06, No Iterations 3
smoothSolver:  Solving for Uy, Initial residual = 0.00308598, Final residual = 4.01764e-06, No Iterations 3
DICPCG:  Solving for p, Initial residual = 0.00299702, Final residual = 0.000146495, No Iterations 52
time step continuity errors : sum local = 1.17951e-08, global = 1.62629e-20, cumulative = 9.22624e-20
DICPCG:  Solving for p, Initial residual = 0.00147485, Final residual = 9.70972e-07, No Iterations 210
time step continuity errors : sum local = 7.82473e-11, global = -3.50396e-20, cumulative = 5.72228e-20
ExecutionTime = 8.1 s  ClockTime = 8 s

Time = 0.050625

Courant Number mean: 0.0305154 max: 0.578937
smoothSolver:  Solving for Ux, Initial residual = 0.00247072, Final residual = 3.02466e-06, No Iterations 3
smoothSolver:  Solving for Uy, Initial residual = 0.00305032, Final residual = 3.96955e-06, No Iterations 3
DICPCG:  Solving for p, Initial residual = 0.00297195, Final residual = 0.000144902, No Iterations 52
time step continuity errors : sum local = 1.16761e-08, global = 7.01522e-20, cumulative = 1.27375e-19
DICPCG:  Solving for p, Initial residual = 0.00146263, Final residual = 9.62996e-07, No Iterations 210
time step continuity errors : sum local = 7.76656e-11, global = 1.80919e-20, cumulative = 1.45467e-19
ExecutionTime = 8.19 s  ClockTime = 8 s

Time = 0.05125

Courant Number mean: 0.0306557 max: 0.579212
smoothSolver:  Solving for Ux, Initial residual = 0.00243779, Final residual = 2.98527e-06, No Iterations 3
smoothSolver:  Solving for Uy, Initial residual = 0.00301556, Final residual = 3.92276e-06, No Iterations 3
DICPCG:  Solving for p, Initial residual = 0.00294732, Final residual = 0.000143368, No Iterations 52
time step continuity errors : sum local = 1.15616e-08, global = 1.45625e-20, cumulative = 1.60029e-19
DICPCG:  Solving for p, Initial residual = 0.00145064, Final residual = 9.55325e-07, No Iterations 210
time step continuity errors : sum local = 7.71084e-11, global = 2.97816e-20, cumulative = 1.89811e-19
ExecutionTime = 8.29 s  ClockTime = 8 s

Time = 0.051875

Courant Number mean: 0.0307943 max: 0.579483
smoothSolver:  Solving for Ux, Initial residual = 0.00240568, Final residual = 2.94713e-06, No Iterations 3
smoothSolver:  Solving for Uy, Initial residual = 0.00298169, Final residual = 3.87714e-06, No Iterations 3
DICPCG:  Solving for p, Initial residual = 0.00292264, Final residual = 0.000141842, No Iterations 52
time step continuity errors : sum local = 1.14475e-08, global = 2.5765e-20, cumulative = 2.15576e-19
DICPCG:  Solving for p, Initial residual = 0.00143863, Final residual = 9.46919e-07, No Iterations 210
time step continuity errors : sum local = 7.64905e-11, global = -3.63673e-20, cumulative = 1.79209e-19
ExecutionTime = 8.38 s  ClockTime = 8 s

Time = 0.0525

Courant Number mean: 0.0309314 max: 0.579748
smoothSolver:  Solving for Ux, Initial residual = 0.00237454, Final residual = 2.91002e-06, No Iterations 3
smoothSolver:  Solving for Uy, Initial residual = 0.00294868, Final residual = 3.83268e-06, No Iterations 3
DICPCG:  Solving for p, Initial residual = 0.0028985, Final residual = 0.000140367, No Iterations 52
time step continuity errors : sum local = 1.13372e-08, global = 1.21021e-20, cumulative = 1.91311e-19
DICPCG:  Solving for p, Initial residual = 0.00142718, Final residual = 9.38675e-07, No Iterations 210
time step continuity errors : sum local = 7.58832e-11, global = -2.68405e-21, cumulative = 1.88627e-19
ExecutionTime = 8.48 s  ClockTime = 8 s

Time = 0.053125

Courant Number mean: 0.0310674 max: 0.580011
smoothSolver:  Solving for Ux, Initial residual = 0.00234424, Final residual = 2.87382e-06, No Iterations 3
smoothSolver:  Solving for Uy, Initial residual = 0.00291651, Final residual = 3.78935e-06, No Iterations 3
DICPCG:  Solving for p, Initial residual = 0.00287453, Final residual = 0.000138996, No Iterations 52
time step continuity errors : sum local = 1.12349e-08, global = -3.89045e-21, cumulative = 1.84736e-19
DICPCG:  Solving for p, Initial residual = 0.0014163, Final residual = 9.30481e-07, No Iterations 210
time step continuity errors : sum local = 7.52772e-11, global = -3.3969e-20, cumulative = 1.50767e-19
ExecutionTime = 8.57 s  ClockTime = 8 s

Time = 0.05375

Courant Number mean: 0.0312026 max: 0.58027
smoothSolver:  Solving for Ux, Initial residual = 0.00231461, Final residual = 2.83842e-06, No Iterations 3
smoothSolver:  Solving for Uy, Initial residual = 0.00288507, Final residual = 3.74712e-06, No Iterations 3
DICPCG:  Solving for p, Initial residual = 0.00285159, Final residual = 0.000137691, No Iterations 52
time step continuity errors : sum local = 1.11376e-08, global = -2.66573e-20, cumulative = 1.2411e-19
DICPCG:  Solving for p, Initial residual = 0.00140564, Final residual = 9.21928e-07, No Iterations 210
time step continuity errors : sum local = 7.46399e-11, global = -7.88249e-21, cumulative = 1.16228e-19
ExecutionTime = 8.67 s  ClockTime = 8 s

Time = 0.054375

Courant Number mean: 0.0313369 max: 0.580524
smoothSolver:  Solving for Ux, Initial residual = 0.00228568, Final residual = 2.80388e-06, No Iterations 3
smoothSolver:  Solving for Uy, Initial residual = 0.00285438, Final residual = 3.70586e-06, No Iterations 3
DICPCG:  Solving for p, Initial residual = 0.00282729, Final residual = 0.000136811, No Iterations 52
time step continuity errors : sum local = 1.10744e-08, global = 1.43028e-20, cumulative = 1.3053e-19
DICPCG:  Solving for p, Initial residual = 0.00139522, Final residual = 9.16452e-07, No Iterations 210
time step continuity errors : sum local = 7.42501e-11, global = -2.98059e-20, cumulative = 1.00724e-19
ExecutionTime = 8.76 s  ClockTime = 9 s

Time = 0.055

Courant Number mean: 0.0314702 max: 0.580774
smoothSolver:  Solving for Ux, Initial residual = 0.0022574, Final residual = 2.77016e-06, No Iterations 3
smoothSolver:  Solving for Uy, Initial residual = 0.00282441, Final residual = 3.66559e-06, No Iterations 3
DICPCG:  Solving for p, Initial residual = 0.00280244, Final residual = 0.000135542, No Iterations 52
time step continuity errors : sum local = 1.09795e-08, global = 1.80288e-20, cumulative = 1.18753e-19
DICPCG:  Solving for p, Initial residual = 0.00138532, Final residual = 9.08128e-07, No Iterations 210
time step continuity errors : sum local = 7.36283e-11, global = -3.7522e-20, cumulative = 8.12313e-20
ExecutionTime = 8.86 s  ClockTime = 9 s

Time = 0.055625

Courant Number mean: 0.0316024 max: 0.58102
smoothSolver:  Solving for Ux, Initial residual = 0.00222975, Final residual = 2.73719e-06, No Iterations 3
smoothSolver:  Solving for Uy, Initial residual = 0.00279524, Final residual = 3.62633e-06, No Iterations 3
DICPCG:  Solving for p, Initial residual = 0.00277931, Final residual = 0.000133772, No Iterations 52
time step continuity errors : sum local = 1.08438e-08, global = 2.16826e-20, cumulative = 1.02914e-19
DICPCG:  Solving for p, Initial residual = 0.00137466, Final residual = 8.97525e-07, No Iterations 210
time step continuity errors : sum local = 7.28198e-11, global = -1.9304e-20, cumulative = 8.36099e-20
ExecutionTime = 8.95 s  ClockTime = 9 s

Time = 0.05625

Courant Number mean: 0.0317335 max: 0.581261
smoothSolver:  Solving for Ux, Initial residual = 0.00220272, Final residual = 2.70488e-06, No Iterations 3
smoothSolver:  Solving for Uy, Initial residual = 0.00276669, Final residual = 3.58799e-06, No Iterations 3
DICPCG:  Solving for p, Initial residual = 0.00275784, Final residual = 0.000132495, No Iterations 52
time step continuity errors : sum local = 1.07478e-08, global = 1.76791e-20, cumulative = 1.01289e-19
DICPCG:  Solving for p, Initial residual = 0.00136473, Final residual = 8.88374e-07, No Iterations 210
time step continuity errors : sum local = 7.21291e-11, global = -2.53936e-20, cumulative = 7.58954e-20
ExecutionTime = 9.06 s  ClockTime = 9 s

Time = 0.056875

Courant Number mean: 0.0318634 max: 0.581499
smoothSolver:  Solving for Ux, Initial residual = 0.00217632, Final residual = 2.67322e-06, No Iterations 3
smoothSolver:  Solving for Uy, Initial residual = 0.00273878, Final residual = 3.55054e-06, No Iterations 3
DICPCG:  Solving for p, Initial residual = 0.0027378, Final residual = 0.000131311, No Iterations 52
time step continuity errors : sum local = 1.06593e-08, global = -3.10172e-20, cumulative = 4.48783e-20
DICPCG:  Solving for p, Initial residual = 0.00135552, Final residual = 8.79931e-07, No Iterations 210
time step continuity errors : sum local = 7.14947e-11, global = -4.81544e-20, cumulative = -3.27611e-21
ExecutionTime = 9.15 s  ClockTime = 9 s

Time = 0.0575

Courant Number mean: 0.0319921 max: 0.581733
smoothSolver:  Solving for Ux, Initial residual = 0.00215055, Final residual = 2.64219e-06, No Iterations 3
smoothSolver:  Solving for Uy, Initial residual = 0.00271151, Final residual = 3.51394e-06, No Iterations 3
DICPCG:  Solving for p, Initial residual = 0.00271895, Final residual = 0.000130141, No Iterations 52
time step continuity errors : sum local = 1.05716e-08, global = 1.48827e-20, cumulative = 1.16066e-20
DICPCG:  Solving for p, Initial residual = 0.00134637, Final residual = 8.70955e-07, No Iterations 210
time step continuity errors : sum local = 7.08149e-11, global = -1.14412e-20, cumulative = 1.65376e-22
ExecutionTime = 9.25 s  ClockTime = 9 s

Time = 0.058125

Courant Number mean: 0.0321197 max: 0.581963
smoothSolver:  Solving for Ux, Initial residual = 0.00212526, Final residual = 2.6118e-06, No Iterations 3
smoothSolver:  Solving for Uy, Initial residual = 0.0026849, Final residual = 3.47815e-06, No Iterations 3
DICPCG:  Solving for p, Initial residual = 0.00270053, Final residual = 0.000129075, No Iterations 52
time step continuity errors : sum local = 1.04922e-08, global = -5.67064e-20, cumulative = -5.6541e-20
DICPCG:  Solving for p, Initial residual = 0.00133717, Final residual = 8.61891e-07, No Iterations 210
time step continuity errors : sum local = 7.01257e-11, global = 6.7716e-21, cumulative = -4.97694e-20
ExecutionTime = 9.34 s  ClockTime = 9 s

Time = 0.05875

Courant Number mean: 0.0322463 max: 0.582189
smoothSolver:  Solving for Ux, Initial residual = 0.00210048, Final residual = 2.58199e-06, No Iterations 3
smoothSolver:  Solving for Uy, Initial residual = 0.00265888, Final residual = 3.44314e-06, No Iterations 3
DICPCG:  Solving for p, Initial residual = 0.00268256, Final residual = 0.00012784, No Iterations 52
time step continuity errors : sum local = 1.0399e-08, global = 1.6865e-20, cumulative = -3.29044e-20
DICPCG:  Solving for p, Initial residual = 0.00132815, Final residual = 8.53433e-07, No Iterations 210
time step continuity errors : sum local = 6.9486e-11, global = 1.85506e-21, cumulative = -3.10494e-20
ExecutionTime = 9.44 s  ClockTime = 9 s

Time = 0.059375

Courant Number mean: 0.0323718 max: 0.582412
smoothSolver:  Solving for Ux, Initial residual = 0.00207621, Final residual = 2.55293e-06, No Iterations 3
smoothSolver:  Solving for Uy, Initial residual = 0.00263338, Final residual = 3.40891e-06, No Iterations 3
DICPCG:  Solving for p, Initial residual = 0.00266435, Final residual = 0.000126882, No Iterations 52
time step continuity errors : sum local = 1.03281e-08, global = -4.95904e-22, cumulative = -3.15453e-20
DICPCG:  Solving for p, Initial residual = 0.00131814, Final residual = 8.43625e-07, No Iterations 210
time step continuity errors : sum local = 6.87368e-11, global = -3.56476e-20, cumulative = -6.71929e-20
ExecutionTime = 9.53 s  ClockTime = 9 s

Time = 0.06

Courant Number mean: 0.0324961 max: 0.582632
smoothSolver:  Solving for Ux, Initial residual = 0.00205263, Final residual = 2.52462e-06, No Iterations 3
smoothSolver:  Solving for Uy, Initial residual = 0.00260845, Final residual = 3.37543e-06, No Iterations 3
DICPCG:  Solving for p, Initial residual = 0.00264449, Final residual = 0.000125628, No Iterations 52
time step continuity errors : sum local = 1.02332e-08, global = -2.20351e-20, cumulative = -8.9228e-20
DICPCG:  Solving for p, Initial residual = 0.00130909, Final residual = 8.34165e-07, No Iterations 210
time step continuity errors : sum local = 6.80144e-11, global = 3.90953e-20, cumulative = -5.01327e-20
ExecutionTime = 9.63 s  ClockTime = 9 s

Time = 0.060625

Courant Number mean: 0.0326193 max: 0.582847
smoothSolver:  Solving for Ux, Initial residual = 0.0020296, Final residual = 2.49705e-06, No Iterations 3
smoothSolver:  Solving for Uy, Initial residual = 0.00258401, Final residual = 3.34267e-06, No Iterations 3
DICPCG:  Solving for p, Initial residual = 0.00262555, Final residual = 0.000130985, No Iterations 51
time step continuity errors : sum local = 1.06759e-08, global = -6.8095e-21, cumulative = -5.69422e-20
DICPCG:  Solving for p, Initial residual = 0.0012992, Final residual = 8.24257e-07, No Iterations 210
time step continuity errors : sum local = 6.72527e-11, global = -5.43096e-21, cumulative = -6.23732e-20
ExecutionTime = 9.72 s  ClockTime = 10 s

Time = 0.06125

Courant Number mean: 0.0327415 max: 0.58306
smoothSolver:  Solving for Ux, Initial residual = 0.00200702, Final residual = 2.47009e-06, No Iterations 3
smoothSolver:  Solving for Uy, Initial residual = 0.00256009, Final residual = 3.31061e-06, No Iterations 3
DICPCG:  Solving for p, Initial residual = 0.00260834, Final residual = 0.000129582, No Iterations 51
time step continuity errors : sum local = 1.05677e-08, global = -3.17204e-20, cumulative = -9.40936e-20
DICPCG:  Solving for p, Initial residual = 0.00129732, Final residual = 8.13613e-07, No Iterations 210
time step continuity errors : sum local = 6.64301e-11, global = 3.74174e-20, cumulative = -5.66762e-20
ExecutionTime = 9.82 s  ClockTime = 10 s

Time = 0.061875

Courant Number mean: 0.0328626 max: 0.583269
smoothSolver:  Solving for Ux, Initial residual = 0.00198502, Final residual = 2.4438e-06, No Iterations 3
smoothSolver:  Solving for Uy, Initial residual = 0.00253672, Final residual = 3.27925e-06, No Iterations 3
DICPCG:  Solving for p, Initial residual = 0.00258978, Final residual = 0.000128454, No Iterations 51
time step continuity errors : sum local = 1.04828e-08, global = -1.46962e-21, cumulative = -5.81458e-20
DICPCG:  Solving for p, Initial residual = 0.00128803, Final residual = 9.92189e-07, No Iterations 209
time step continuity errors : sum local = 8.10696e-11, global = 4.21693e-20, cumulative = -1.59765e-20
ExecutionTime = 9.92 s  ClockTime = 10 s

Time = 0.0625

Courant Number mean: 0.0329826 max: 0.583475
smoothSolver:  Solving for Ux, Initial residual = 0.00196353, Final residual = 2.41804e-06, No Iterations 3
smoothSolver:  Solving for Uy, Initial residual = 0.00251385, Final residual = 3.24857e-06, No Iterations 3
DICPCG:  Solving for p, Initial residual = 0.00257169, Final residual = 0.000127132, No Iterations 51
time step continuity errors : sum local = 1.03818e-08, global = -3.86789e-20, cumulative = -5.46554e-20
DICPCG:  Solving for p, Initial residual = 0.0012794, Final residual = 9.80436e-07, No Iterations 209
time step continuity errors : sum local = 8.01621e-11, global = -3.15387e-20, cumulative = -8.61941e-20
ExecutionTime = 10.01 s  ClockTime = 10 s

Time = 0.063125

Courant Number mean: 0.0331015 max: 0.583678
smoothSolver:  Solving for Ux, Initial residual = 0.00194248, Final residual = 2.39275e-06, No Iterations 3
smoothSolver:  Solving for Uy, Initial residual = 0.00249147, Final residual = 3.21852e-06, No Iterations 3
DICPCG:  Solving for p, Initial residual = 0.00255432, Final residual = 0.0001261, No Iterations 51
time step continuity errors : sum local = 1.03042e-08, global = 3.55957e-20, cumulative = -5.05984e-20
DICPCG:  Solving for p, Initial residual = 0.00127078, Final residual = 9.68114e-07, No Iterations 209
time step continuity errors : sum local = 7.92073e-11, global = 1.79299e-20, cumulative = -3.26685e-20
ExecutionTime = 10.11 s  ClockTime = 10 s

Time = 0.06375

Courant Number mean: 0.0332194 max: 0.583878
smoothSolver:  Solving for Ux, Initial residual = 0.00192189, Final residual = 2.36793e-06, No Iterations 3
smoothSolver:  Solving for Uy, Initial residual = 0.00246952, Final residual = 3.18907e-06, No Iterations 3
DICPCG:  Solving for p, Initial residual = 0.00254534, Final residual = 0.000124913, No Iterations 51
time step continuity errors : sum local = 1.02141e-08, global = -9.85823e-21, cumulative = -4.25267e-20
DICPCG:  Solving for p, Initial residual = 0.0012629, Final residual = 9.60327e-07, No Iterations 209
time step continuity errors : sum local = 7.86236e-11, global = -1.45272e-21, cumulative = -4.39794e-20
ExecutionTime = 10.2 s  ClockTime = 10 s

Time = 0.064375

Courant Number mean: 0.0333363 max: 0.584075
smoothSolver:  Solving for Ux, Initial residual = 0.00190172, Final residual = 2.34359e-06, No Iterations 3
smoothSolver:  Solving for Uy, Initial residual = 0.00244802, Final residual = 3.16022e-06, No Iterations 3
DICPCG:  Solving for p, Initial residual = 0.00253651, Final residual = 0.000123892, No Iterations 51
time step continuity errors : sum local = 1.01372e-08, global = -1.17062e-20, cumulative = -5.56857e-20
DICPCG:  Solving for p, Initial residual = 0.00125407, Final residual = 9.44582e-07, No Iterations 209
time step continuity errors : sum local = 7.73879e-11, global = -1.04616e-20, cumulative = -6.61473e-20
ExecutionTime = 10.3 s  ClockTime = 10 s

Time = 0.065

Courant Number mean: 0.0334525 max: 0.584269
smoothSolver:  Solving for Ux, Initial residual = 0.0018819, Final residual = 2.31973e-06, No Iterations 3
smoothSolver:  Solving for Uy, Initial residual = 0.00242692, Final residual = 3.1319e-06, No Iterations 3
DICPCG:  Solving for p, Initial residual = 0.00251275, Final residual = 0.000123691, No Iterations 51
time step continuity errors : sum local = 1.01276e-08, global = -3.67942e-21, cumulative = -6.98267e-20
DICPCG:  Solving for p, Initial residual = 0.00124713, Final residual = 9.33853e-07, No Iterations 209
time step continuity errors : sum local = 7.65596e-11, global = -4.93212e-21, cumulative = -7.47588e-20
ExecutionTime = 10.39 s  ClockTime = 10 s

Time = 0.065625

Courant Number mean: 0.0335675 max: 0.58446
smoothSolver:  Solving for Ux, Initial residual = 0.00186243, Final residual = 2.29624e-06, No Iterations 3
smoothSolver:  Solving for Uy, Initial residual = 0.00240628, Final residual = 3.10421e-06, No Iterations 3
DICPCG:  Solving for p, Initial residual = 0.00248371, Final residual = 0.000121724, No Iterations 51
time step continuity errors : sum local = 9.97302e-09, global = -4.28214e-20, cumulative = -1.1758e-19
DICPCG:  Solving for p, Initial residual = 0.00123849, Final residual = 9.21675e-07, No Iterations 209
time step continuity errors : sum local = 7.56107e-11, global = 1.79193e-20, cumulative = -9.96609e-20
ExecutionTime = 10.49 s  ClockTime = 10 s

Time = 0.06625

Courant Number mean: 0.0336816 max: 0.584648
smoothSolver:  Solving for Ux, Initial residual = 0.00184331, Final residual = 2.27317e-06, No Iterations 3
smoothSolver:  Solving for Uy, Initial residual = 0.00238595, Final residual = 3.07706e-06, No Iterations 3
DICPCG:  Solving for p, Initial residual = 0.00246833, Final residual = 0.000120508, No Iterations 51
time step continuity errors : sum local = 9.87975e-09, global = 4.29356e-20, cumulative = -5.67253e-20
DICPCG:  Solving for p, Initial residual = 0.00123095, Final residual = 9.09849e-07, No Iterations 209
time step continuity errors : sum local = 7.46882e-11, global = -4.5431e-20, cumulative = -1.02156e-19
ExecutionTime = 10.58 s  ClockTime = 10 s

Time = 0.066875

Courant Number mean: 0.0337947 max: 0.584834
smoothSolver:  Solving for Ux, Initial residual = 0.00182455, Final residual = 2.25056e-06, No Iterations 3
smoothSolver:  Solving for Uy, Initial residual = 0.002366, Final residual = 3.05048e-06, No Iterations 3
DICPCG:  Solving for p, Initial residual = 0.00245301, Final residual = 0.000119256, No Iterations 51
time step continuity errors : sum local = 9.78311e-09, global = 1.8871e-20, cumulative = -8.32852e-20
DICPCG:  Solving for p, Initial residual = 0.00122325, Final residual = 8.99507e-07, No Iterations 209
time step continuity errors : sum local = 7.3885e-11, global = -3.02539e-20, cumulative = -1.13539e-19
ExecutionTime = 10.67 s  ClockTime = 11 s

Time = 0.0675

Courant Number mean: 0.0339068 max: 0.585016
smoothSolver:  Solving for Ux, Initial residual = 0.00180628, Final residual = 2.22863e-06, No Iterations 3
smoothSolver:  Solving for Uy, Initial residual = 0.00234642, Final residual = 3.02437e-06, No Iterations 3
DICPCG:  Solving for p, Initial residual = 0.00243921, Final residual = 0.000118275, No Iterations 51
time step continuity errors : sum local = 9.70862e-09, global = 3.85856e-20, cumulative = -7.49535e-20
DICPCG:  Solving for p, Initial residual = 0.00121618, Final residual = 8.86137e-07, No Iterations 209
time step continuity errors : sum local = 7.28313e-11, global = 1.99537e-20, cumulative = -5.49998e-20
ExecutionTime = 10.77 s  ClockTime = 11 s

Time = 0.068125

Courant Number mean: 0.034018 max: 0.585196
smoothSolver:  Solving for Ux, Initial residual = 0.00178843, Final residual = 2.20725e-06, No Iterations 3
smoothSolver:  Solving for Uy, Initial residual = 0.00232725, Final residual = 2.99874e-06, No Iterations 3
DICPCG:  Solving for p, Initial residual = 0.00242538, Final residual = 0.000117359, No Iterations 51
[...]
time step continuity errors : sum local = 8.47353e-11, global = -5.77967e-21, cumulative = -9.16032e-18
ExecutionTime = 241.01 s  ClockTime = 245 s

Time = 2.98375

Courant Number mean: 0.0853518 max: 0.600717
smoothSolver:  Solving for Ux, Initial residual = 9.96349e-07, Final residual = 9.96349e-07, No Iterations 0
smoothSolver:  Solving for Uy, Initial residual = 1.30921e-06, Final residual = 1.30921e-06, No Iterations 0
DICPCG:  Solving for p, Initial residual = 1.67199e-06, Final residual = 8.15583e-07, No Iterations 10
time step continuity errors : sum local = 8.03153e-11, global = 8.99178e-21, cumulative = -9.15133e-18
DICPCG:  Solving for p, Initial residual = 1.07613e-06, Final residual = 8.76185e-07, No Iterations 1
time step continuity errors : sum local = 8.60111e-11, global = 2.94709e-20, cumulative = -9.12186e-18
ExecutionTime = 241.02 s  ClockTime = 245 s

Time = 2.98437

Courant Number mean: 0.0853519 max: 0.600717
smoothSolver:  Solving for Ux, Initial residual = 9.94901e-07, Final residual = 9.94901e-07, No Iterations 0
smoothSolver:  Solving for Uy, Initial residual = 1.30891e-06, Final residual = 1.30891e-06, No Iterations 0
DICPCG:  Solving for p, Initial residual = 1.5026e-06, Final residual = 8.88206e-07, No Iterations 2
time step continuity errors : sum local = 8.71139e-11, global = 4.42166e-21, cumulative = -9.11743e-18
DICPCG:  Solving for p, Initial residual = 1.18845e-06, Final residual = 8.15664e-07, No Iterations 1
time step continuity errors : sum local = 8.02785e-11, global = 1.26466e-19, cumulative = -8.99097e-18
ExecutionTime = 241.03 s  ClockTime = 245 s

Time = 2.985

Courant Number mean: 0.085352 max: 0.600717
smoothSolver:  Solving for Ux, Initial residual = 9.94151e-07, Final residual = 9.94151e-07, No Iterations 0
smoothSolver:  Solving for Uy, Initial residual = 1.30674e-06, Final residual = 1.30674e-06, No Iterations 0
DICPCG:  Solving for p, Initial residual = 1.5808e-06, Final residual = 7.32777e-07, No Iterations 5
time step continuity errors : sum local = 7.24881e-11, global = -9.26864e-20, cumulative = -9.08366e-18
DICPCG:  Solving for p, Initial residual = 1.02725e-06, Final residual = 8.52145e-07, No Iterations 3
time step continuity errors : sum local = 8.37277e-11, global = -2.7858e-21, cumulative = -9.08644e-18
ExecutionTime = 241.04 s  ClockTime = 245 s

Time = 2.98562

Courant Number mean: 0.0853521 max: 0.600717
smoothSolver:  Solving for Ux, Initial residual = 9.92933e-07, Final residual = 9.92933e-07, No Iterations 0
smoothSolver:  Solving for Uy, Initial residual = 1.3048e-06, Final residual = 1.3048e-06, No Iterations 0
DICPCG:  Solving for p, Initial residual = 1.82568e-06, Final residual = 8.07565e-07, No Iterations 9
time step continuity errors : sum local = 7.94228e-11, global = -5.35631e-20, cumulative = -9.14e-18
DICPCG:  Solving for p, Initial residual = 1.0546e-06, Final residual = 9.34891e-07, No Iterations 1
time step continuity errors : sum local = 9.13869e-11, global = 7.03092e-20, cumulative = -9.06969e-18
ExecutionTime = 241.05 s  ClockTime = 245 s

Time = 2.98625

Courant Number mean: 0.0853522 max: 0.600717
smoothSolver:  Solving for Ux, Initial residual = 9.91908e-07, Final residual = 9.91908e-07, No Iterations 0
smoothSolver:  Solving for Uy, Initial residual = 1.30422e-06, Final residual = 1.30422e-06, No Iterations 0
DICPCG:  Solving for p, Initial residual = 1.64627e-06, Final residual = 5.09774e-07, No Iterations 5
time step continuity errors : sum local = 5.13744e-11, global = -2.84727e-20, cumulative = -9.09817e-18
DICPCG:  Solving for p, Initial residual = 8.01987e-07, Final residual = 8.01987e-07, No Iterations 0
time step continuity errors : sum local = 7.89127e-11, global = -9.8945e-21, cumulative = -9.10806e-18
ExecutionTime = 241.06 s  ClockTime = 245 s

Time = 2.98687

Courant Number mean: 0.0853523 max: 0.600717
smoothSolver:  Solving for Ux, Initial residual = 9.90532e-07, Final residual = 9.90532e-07, No Iterations 0
smoothSolver:  Solving for Uy, Initial residual = 1.30214e-06, Final residual = 1.30214e-06, No Iterations 0
DICPCG:  Solving for p, Initial residual = 1.69518e-06, Final residual = 9.5016e-07, No Iterations 8
time step continuity errors : sum local = 9.28878e-11, global = -3.89379e-20, cumulative = -9.147e-18
DICPCG:  Solving for p, Initial residual = 1.30573e-06, Final residual = 9.52614e-07, No Iterations 4
time step continuity errors : sum local = 9.31208e-11, global = 3.39067e-20, cumulative = -9.11309e-18
ExecutionTime = 241.07 s  ClockTime = 245 s

Time = 2.9875

Courant Number mean: 0.0853524 max: 0.600717
smoothSolver:  Solving for Ux, Initial residual = 9.89307e-07, Final residual = 9.89307e-07, No Iterations 0
smoothSolver:  Solving for Uy, Initial residual = 1.3009e-06, Final residual = 1.3009e-06, No Iterations 0
DICPCG:  Solving for p, Initial residual = 1.82573e-06, Final residual = 8.55157e-07, No Iterations 3
time step continuity errors : sum local = 8.38881e-11, global = 6.11477e-21, cumulative = -9.10698e-18
DICPCG:  Solving for p, Initial residual = 1.16354e-06, Final residual = 6.2062e-07, No Iterations 8
time step continuity errors : sum local = 6.19082e-11, global = 1.1092e-19, cumulative = -8.99606e-18
ExecutionTime = 241.08 s  ClockTime = 245 s

Time = 2.98812

Courant Number mean: 0.0853525 max: 0.600717
smoothSolver:  Solving for Ux, Initial residual = 9.87655e-07, Final residual = 9.87655e-07, No Iterations 0
smoothSolver:  Solving for Uy, Initial residual = 1.30006e-06, Final residual = 1.30006e-06, No Iterations 0
DICPCG:  Solving for p, Initial residual = 1.20442e-06, Final residual = 9.76141e-07, No Iterations 2
time step continuity errors : sum local = 9.54935e-11, global = 1.76072e-20, cumulative = -8.97845e-18
DICPCG:  Solving for p, Initial residual = 1.29939e-06, Final residual = 8.61972e-07, No Iterations 1
time step continuity errors : sum local = 8.47035e-11, global = -2.13821e-20, cumulative = -8.99983e-18
ExecutionTime = 241.09 s  ClockTime = 245 s

Time = 2.98875

Courant Number mean: 0.0853526 max: 0.600717
smoothSolver:  Solving for Ux, Initial residual = 9.86963e-07, Final residual = 9.86963e-07, No Iterations 0
smoothSolver:  Solving for Uy, Initial residual = 1.29815e-06, Final residual = 1.29815e-06, No Iterations 0
DICPCG:  Solving for p, Initial residual = 1.46568e-06, Final residual = 8.91623e-07, No Iterations 1
time step continuity errors : sum local = 8.75135e-11, global = -5.65657e-20, cumulative = -9.0564e-18
DICPCG:  Solving for p, Initial residual = 1.11297e-06, Final residual = 8.127e-07, No Iterations 4
time step continuity errors : sum local = 7.99449e-11, global = -3.72606e-20, cumulative = -9.09366e-18
ExecutionTime = 241.11 s  ClockTime = 245 s

Time = 2.98937

Courant Number mean: 0.0853527 max: 0.600717
smoothSolver:  Solving for Ux, Initial residual = 9.85794e-07, Final residual = 9.85794e-07, No Iterations 0
smoothSolver:  Solving for Uy, Initial residual = 1.29646e-06, Final residual = 1.29646e-06, No Iterations 0
DICPCG:  Solving for p, Initial residual = 1.48369e-06, Final residual = 9.06792e-07, No Iterations 10
time step continuity errors : sum local = 8.89221e-11, global = 6.26165e-20, cumulative = -9.03104e-18
DICPCG:  Solving for p, Initial residual = 1.17002e-06, Final residual = 9.77211e-07, No Iterations 2
time step continuity errors : sum local = 9.56376e-11, global = -3.11965e-21, cumulative = -9.03416e-18
ExecutionTime = 241.12 s  ClockTime = 245 s

Time = 2.99

Courant Number mean: 0.0853528 max: 0.600717
smoothSolver:  Solving for Ux, Initial residual = 9.84545e-07, Final residual = 9.84545e-07, No Iterations 0
smoothSolver:  Solving for Uy, Initial residual = 1.29517e-06, Final residual = 1.29517e-06, No Iterations 0
DICPCG:  Solving for p, Initial residual = 1.87305e-06, Final residual = 8.79095e-07, No Iterations 4
time step continuity errors : sum local = 8.62021e-11, global = 1.93347e-20, cumulative = -9.01483e-18
DICPCG:  Solving for p, Initial residual = 1.18668e-06, Final residual = 7.69817e-07, No Iterations 2
time step continuity errors : sum local = 7.59941e-11, global = -6.54414e-21, cumulative = -9.02137e-18
ExecutionTime = 241.13 s  ClockTime = 245 s

Time = 2.99062

Courant Number mean: 0.0853529 max: 0.600717
smoothSolver:  Solving for Ux, Initial residual = 9.83506e-07, Final residual = 9.83506e-07, No Iterations 0
smoothSolver:  Solving for Uy, Initial residual = 1.29338e-06, Final residual = 1.29338e-06, No Iterations 0
DICPCG:  Solving for p, Initial residual = 1.64756e-06, Final residual = 9.62659e-07, No Iterations 7
time step continuity errors : sum local = 9.4235e-11, global = 3.5514e-20, cumulative = -8.98586e-18
DICPCG:  Solving for p, Initial residual = 1.29864e-06, Final residual = 7.60169e-07, No Iterations 4
time step continuity errors : sum local = 7.49761e-11, global = 3.59168e-20, cumulative = -8.94994e-18
ExecutionTime = 241.15 s  ClockTime = 245 s

Time = 2.99125

Courant Number mean: 0.085353 max: 0.600717
smoothSolver:  Solving for Ux, Initial residual = 9.82219e-07, Final residual = 9.82219e-07, No Iterations 0
smoothSolver:  Solving for Uy, Initial residual = 1.29243e-06, Final residual = 1.29243e-06, No Iterations 0
DICPCG:  Solving for p, Initial residual = 1.48312e-06, Final residual = 6.67585e-07, No Iterations 2
time step continuity errors : sum local = 6.64021e-11, global = 7.11796e-20, cumulative = -8.87876e-18
DICPCG:  Solving for p, Initial residual = 1.01951e-06, Final residual = 6.62463e-07, No Iterations 1
time step continuity errors : sum local = 6.58729e-11, global = 5.21558e-20, cumulative = -8.82661e-18
ExecutionTime = 241.15 s  ClockTime = 245 s

Time = 2.99187

Courant Number mean: 0.0853531 max: 0.600717
smoothSolver:  Solving for Ux, Initial residual = 9.81618e-07, Final residual = 9.81618e-07, No Iterations 0
smoothSolver:  Solving for Uy, Initial residual = 1.29037e-06, Final residual = 1.29037e-06, No Iterations 0
DICPCG:  Solving for p, Initial residual = 1.22909e-06, Final residual = 9.71472e-07, No Iterations 10
time step continuity errors : sum local = 9.5044e-11, global = 1.12755e-20, cumulative = -8.81533e-18
DICPCG:  Solving for p, Initial residual = 1.28918e-06, Final residual = 9.20702e-07, No Iterations 1
time step continuity errors : sum local = 9.01696e-11, global = 9.32252e-21, cumulative = -8.80601e-18
ExecutionTime = 241.17 s  ClockTime = 245 s

Time = 2.9925

Courant Number mean: 0.0853532 max: 0.600717
smoothSolver:  Solving for Ux, Initial residual = 9.79626e-07, Final residual = 9.79626e-07, No Iterations 0
smoothSolver:  Solving for Uy, Initial residual = 1.28976e-06, Final residual = 1.28976e-06, No Iterations 0
DICPCG:  Solving for p, Initial residual = 1.63185e-06, Final residual = 8.01387e-07, No Iterations 3
time step continuity errors : sum local = 7.89549e-11, global = 6.73139e-20, cumulative = -8.73869e-18
DICPCG:  Solving for p, Initial residual = 1.11463e-06, Final residual = 9.13986e-07, No Iterations 1
time step continuity errors : sum local = 8.95796e-11, global = -6.5314e-20, cumulative = -8.80401e-18
ExecutionTime = 241.18 s  ClockTime = 245 s

Time = 2.99312

Courant Number mean: 0.0853533 max: 0.600717
smoothSolver:  Solving for Ux, Initial residual = 9.7887e-07, Final residual = 9.7887e-07, No Iterations 0
smoothSolver:  Solving for Uy, Initial residual = 1.28789e-06, Final residual = 1.28789e-06, No Iterations 0
DICPCG:  Solving for p, Initial residual = 1.75422e-06, Final residual = 8.2421e-07, No Iterations 1
time step continuity errors : sum local = 8.11209e-11, global = -9.77556e-21, cumulative = -8.81378e-18
DICPCG:  Solving for p, Initial residual = 1.09027e-06, Final residual = 8.15414e-07, No Iterations 7
time step continuity errors : sum local = 8.02609e-11, global = -3.6057e-20, cumulative = -8.84984e-18
ExecutionTime = 241.19 s  ClockTime = 245 s

Time = 2.99375

Courant Number mean: 0.0853534 max: 0.600717
smoothSolver:  Solving for Ux, Initial residual = 9.78193e-07, Final residual = 9.78193e-07, No Iterations 0
smoothSolver:  Solving for Uy, Initial residual = 1.28582e-06, Final residual = 1.28582e-06, No Iterations 0
DICPCG:  Solving for p, Initial residual = 1.64563e-06, Final residual = 9.39956e-07, No Iterations 4
time step continuity errors : sum local = 9.20257e-11, global = 3.53524e-20, cumulative = -8.81449e-18
DICPCG:  Solving for p, Initial residual = 1.28345e-06, Final residual = 9.97318e-07, No Iterations 2
time step continuity errors : sum local = 9.74448e-11, global = -1.96695e-20, cumulative = -8.83416e-18
ExecutionTime = 241.2 s  ClockTime = 245 s

Time = 2.99437

Courant Number mean: 0.0853535 max: 0.600717
smoothSolver:  Solving for Ux, Initial residual = 9.77345e-07, Final residual = 9.77345e-07, No Iterations 0
smoothSolver:  Solving for Uy, Initial residual = 1.28425e-06, Final residual = 1.28425e-06, No Iterations 0
DICPCG:  Solving for p, Initial residual = 2.08441e-06, Final residual = 8.65264e-07, No Iterations 11
time step continuity errors : sum local = 8.50955e-11, global = 5.28786e-20, cumulative = -8.78128e-18
DICPCG:  Solving for p, Initial residual = 1.16721e-06, Final residual = 8.73181e-07, No Iterations 1
time step continuity errors : sum local = 8.58512e-11, global = -1.91937e-21, cumulative = -8.7832e-18
ExecutionTime = 241.21 s  ClockTime = 245 s

Time = 2.995

Courant Number mean: 0.0853536 max: 0.600717
smoothSolver:  Solving for Ux, Initial residual = 9.74829e-07, Final residual = 9.74829e-07, No Iterations 0
smoothSolver:  Solving for Uy, Initial residual = 1.28433e-06, Final residual = 1.28433e-06, No Iterations 0
DICPCG:  Solving for p, Initial residual = 1.60625e-06, Final residual = 9.66494e-07, No Iterations 6
time step continuity errors : sum local = 9.46412e-11, global = -3.56463e-20, cumulative = -8.81884e-18
DICPCG:  Solving for p, Initial residual = 1.27403e-06, Final residual = 9.61687e-07, No Iterations 2
time step continuity errors : sum local = 9.41789e-11, global = -2.31431e-20, cumulative = -8.84199e-18
ExecutionTime = 241.22 s  ClockTime = 245 s

Time = 2.99562

Courant Number mean: 0.0853537 max: 0.600717
smoothSolver:  Solving for Ux, Initial residual = 9.7429e-07, Final residual = 9.7429e-07, No Iterations 0
smoothSolver:  Solving for Uy, Initial residual = 1.28244e-06, Final residual = 1.28244e-06, No Iterations 0
DICPCG:  Solving for p, Initial residual = 2.10322e-06, Final residual = 6.77075e-07, No Iterations 6
time step continuity errors : sum local = 6.72956e-11, global = 5.15891e-20, cumulative = -8.7904e-18
DICPCG:  Solving for p, Initial residual = 1.00836e-06, Final residual = 6.42396e-07, No Iterations 3
time step continuity errors : sum local = 6.40492e-11, global = -5.47154e-20, cumulative = -8.84511e-18
ExecutionTime = 241.23 s  ClockTime = 245 s

Time = 2.99625

Courant Number mean: 0.0853538 max: 0.600717
smoothSolver:  Solving for Ux, Initial residual = 9.7329e-07, Final residual = 9.7329e-07, No Iterations 0
smoothSolver:  Solving for Uy, Initial residual = 1.27977e-06, Final residual = 1.27977e-06, No Iterations 0
DICPCG:  Solving for p, Initial residual = 1.26604e-06, Final residual = 9.68242e-07, No Iterations 8
time step continuity errors : sum local = 9.46989e-11, global = 3.0798e-21, cumulative = -8.84203e-18
DICPCG:  Solving for p, Initial residual = 1.26035e-06, Final residual = 7.1437e-07, No Iterations 1
time step continuity errors : sum local = 7.08656e-11, global = -7.09716e-20, cumulative = -8.91301e-18
ExecutionTime = 241.24 s  ClockTime = 245 s

Time = 2.99687

Courant Number mean: 0.0853539 max: 0.600717
smoothSolver:  Solving for Ux, Initial residual = 9.72122e-07, Final residual = 9.72122e-07, No Iterations 0
smoothSolver:  Solving for Uy, Initial residual = 1.27925e-06, Final residual = 1.27925e-06, No Iterations 0
DICPCG:  Solving for p, Initial residual = 1.28263e-06, Final residual = 8.20881e-07, No Iterations 4
time step continuity errors : sum local = 8.09491e-11, global = 2.8152e-20, cumulative = -8.88485e-18
DICPCG:  Solving for p, Initial residual = 1.16248e-06, Final residual = 9.79463e-07, No Iterations 1
time step continuity errors : sum local = 9.59035e-11, global = 7.67456e-20, cumulative = -8.80811e-18
ExecutionTime = 241.26 s  ClockTime = 245 s

Time = 2.9975

Courant Number mean: 0.085354 max: 0.600718
smoothSolver:  Solving for Ux, Initial residual = 9.71112e-07, Final residual = 9.71112e-07, No Iterations 0
smoothSolver:  Solving for Uy, Initial residual = 1.27739e-06, Final residual = 1.27739e-06, No Iterations 0
DICPCG:  Solving for p, Initial residual = 1.83364e-06, Final residual = 9.95211e-07, No Iterations 9
time step continuity errors : sum local = 9.72545e-11, global = -3.98849e-20, cumulative = -8.84799e-18
DICPCG:  Solving for p, Initial residual = 1.2948e-06, Final residual = 9.48241e-07, No Iterations 1
time step continuity errors : sum local = 9.28122e-11, global = 4.29581e-20, cumulative = -8.80503e-18
ExecutionTime = 241.27 s  ClockTime = 245 s

Time = 2.99812

Courant Number mean: 0.0853541 max: 0.600718
smoothSolver:  Solving for Ux, Initial residual = 9.69468e-07, Final residual = 9.69468e-07, No Iterations 0
smoothSolver:  Solving for Uy, Initial residual = 1.27635e-06, Final residual = 1.27635e-06, No Iterations 0
DICPCG:  Solving for p, Initial residual = 1.68164e-06, Final residual = 6.28757e-07, No Iterations 5
time step continuity errors : sum local = 6.2715e-11, global = -5.78065e-20, cumulative = -8.86284e-18
DICPCG:  Solving for p, Initial residual = 9.04065e-07, Final residual = 9.04065e-07, No Iterations 0
time step continuity errors : sum local = 8.86603e-11, global = -2.91228e-20, cumulative = -8.89196e-18
ExecutionTime = 241.28 s  ClockTime = 245 s

Time = 2.99875

Courant Number mean: 0.0853542 max: 0.600718
smoothSolver:  Solving for Ux, Initial residual = 9.68987e-07, Final residual = 9.68987e-07, No Iterations 0
smoothSolver:  Solving for Uy, Initial residual = 1.27467e-06, Final residual = 1.27467e-06, No Iterations 0
DICPCG:  Solving for p, Initial residual = 1.79854e-06, Final residual = 7.96647e-07, No Iterations 10
time step continuity errors : sum local = 7.84851e-11, global = 2.82918e-20, cumulative = -8.86367e-18
DICPCG:  Solving for p, Initial residual = 1.06288e-06, Final residual = 9.0114e-07, No Iterations 1
time step continuity errors : sum local = 8.83241e-11, global = -4.61693e-20, cumulative = -8.90984e-18
ExecutionTime = 241.3 s  ClockTime = 245 s

Time = 2.99937

Courant Number mean: 0.0853543 max: 0.600718
smoothSolver:  Solving for Ux, Initial residual = 9.67818e-07, Final residual = 9.67818e-07, No Iterations 0
smoothSolver:  Solving for Uy, Initial residual = 1.27307e-06, Final residual = 1.27307e-06, No Iterations 0
DICPCG:  Solving for p, Initial residual = 1.69918e-06, Final residual = 9.49362e-07, No Iterations 3
time step continuity errors : sum local = 9.29171e-11, global = 7.1074e-20, cumulative = -8.83877e-18
DICPCG:  Solving for p, Initial residual = 1.30559e-06, Final residual = 6.65763e-07, No Iterations 2
time step continuity errors : sum local = 6.61801e-11, global = -1.73432e-20, cumulative = -8.85611e-18
ExecutionTime = 241.31 s  ClockTime = 245 s

Time = 3

Courant Number mean: 0.0853544 max: 0.600718
smoothSolver:  Solving for Ux, Initial residual = 9.66937e-07, Final residual = 9.66937e-07, No Iterations 0
smoothSolver:  Solving for Uy, Initial residual = 1.27141e-06, Final residual = 1.27141e-06, No Iterations 0
DICPCG:  Solving for p, Initial residual = 1.52992e-06, Final residual = 9.68711e-07, No Iterations 10
time step continuity errors : sum local = 9.47031e-11, global = -1.11419e-20, cumulative = -8.86725e-18
DICPCG:  Solving for p, Initial residual = 1.26814e-06, Final residual = 7.81173e-07, No Iterations 1
time step continuity errors : sum local = 7.70492e-11, global = -7.49381e-20, cumulative = -8.94219e-18
ExecutionTime = 241.37 s  ClockTime = 245 s

End

