/*---------------------------------------------------------------------------*\
  =========                 |
  \\      /  F ield         | OpenFOAM: The Open Source CFD Toolbox
   \\    /   O peration     | Website:  https://openfoam.org
    \\  /    A nd           | Version:  7
     \\/     M anipulation  |
\*---------------------------------------------------------------------------*/
Build  : 7
Exec   : icoFoam
Date   : Feb 11 2025
Time   : 00:30:00
Host   : "c209-018.frontera.tacc.utexas.edu"
PID    : 168751
I/O    : uncollated
Case   : /work2/10249/ctshep3141/frontera/coe347/COE-347-Open-Foam/of-project-1/extracred/Re-10-AR-half
nProcs : 1
sigFpe : Enabling floating point exception trapping (FOAM_SIGFPE).
fileModificationChecking : Monitoring run-time modified files using timeStampMaster (fileModificationSkew 10)
allowSystemOperations : Allowing user-supplied system call operations

// * * * * * * * * * * * * * * * * * * * * * * * * * * * * * * * * * * * * * //
Create time

Create mesh for time = 0

Reading transportProperties

Reading field p

Reading field U

Reading/calculating face flux field phi


Starting time loop

Time = 0.000625

Courant Number mean: 0 max: 0
smoothSolver:  Solving for Ux, Initial residual = 1, Final residual = 9.92837e-06, No Iterations 53
smoothSolver:  Solving for Uy, Initial residual = 0, Final residual = 0, No Iterations 0
DICPCG:  Solving for p, Initial residual = 1, Final residual = 0.048697, No Iterations 90
time step continuity errors : sum local = 7.54331e-06, global = 1.91402e-20, cumulative = 1.91402e-20
DICPCG:  Solving for p, Initial residual = 0.727209, Final residual = 9.09027e-07, No Iterations 252
time step continuity errors : sum local = 1.96362e-10, global = 2.52808e-20, cumulative = 4.4421e-20
ExecutionTime = 0.27 s  ClockTime = 0 s

Time = 0.00125

Courant Number mean: 0.0157012 max: 0.485776
smoothSolver:  Solving for Ux, Initial residual = 0.132625, Final residual = 9.88884e-06, No Iterations 55
smoothSolver:  Solving for Uy, Initial residual = 0.357412, Final residual = 8.61991e-06, No Iterations 64
DICPCG:  Solving for p, Initial residual = 0.689724, Final residual = 0.0328772, No Iterations 94
time step continuity errors : sum local = 9.44838e-06, global = 3.03343e-21, cumulative = 4.74544e-20
DICPCG:  Solving for p, Initial residual = 0.625768, Final residual = 9.86643e-07, No Iterations 248
time step continuity errors : sum local = 2.66274e-10, global = 1.50916e-20, cumulative = 6.2546e-20
ExecutionTime = 0.45 s  ClockTime = 0 s

Time = 0.001875

Courant Number mean: 0.0237194 max: 0.558661
smoothSolver:  Solving for Ux, Initial residual = 0.052358, Final residual = 8.76551e-06, No Iterations 50
smoothSolver:  Solving for Uy, Initial residual = 0.14173, Final residual = 9.33342e-06, No Iterations 58
DICPCG:  Solving for p, Initial residual = 0.65198, Final residual = 0.0312819, No Iterations 156
time step continuity errors : sum local = 7.17402e-06, global = -4.56591e-20, cumulative = 1.68869e-20
DICPCG:  Solving for p, Initial residual = 0.501218, Final residual = 9.96831e-07, No Iterations 243
time step continuity errors : sum local = 2.73381e-10, global = -3.38127e-20, cumulative = -1.69258e-20
ExecutionTime = 0.65 s  ClockTime = 1 s

Time = 0.0025

Courant Number mean: 0.0285901 max: 0.572221
smoothSolver:  Solving for Ux, Initial residual = 0.0322234, Final residual = 9.9213e-06, No Iterations 47
smoothSolver:  Solving for Uy, Initial residual = 0.091239, Final residual = 9.42565e-06, No Iterations 56
DICPCG:  Solving for p, Initial residual = 0.454503, Final residual = 0.0213805, No Iterations 156
time step continuity errors : sum local = 3.94074e-06, global = 9.80379e-21, cumulative = -7.12199e-21
DICPCG:  Solving for p, Initial residual = 0.371856, Final residual = 9.91949e-07, No Iterations 243
time step continuity errors : sum local = 1.9756e-10, global = 3.39291e-20, cumulative = 2.68071e-20
ExecutionTime = 0.84 s  ClockTime = 1 s

Time = 0.003125

Courant Number mean: 0.0322993 max: 0.579606
smoothSolver:  Solving for Ux, Initial residual = 0.0224899, Final residual = 8.66707e-06, No Iterations 46
smoothSolver:  Solving for Uy, Initial residual = 0.0567619, Final residual = 9.17355e-06, No Iterations 54
DICPCG:  Solving for p, Initial residual = 0.326781, Final residual = 0.0162037, No Iterations 153
time step continuity errors : sum local = 2.47544e-06, global = 1.67563e-20, cumulative = 4.35634e-20
DICPCG:  Solving for p, Initial residual = 0.289114, Final residual = 8.61069e-07, No Iterations 237
time step continuity errors : sum local = 1.35118e-10, global = 1.27876e-20, cumulative = 5.6351e-20
ExecutionTime = 1.02 s  ClockTime = 1 s

Time = 0.00375

Courant Number mean: 0.0353419 max: 0.584129
smoothSolver:  Solving for Ux, Initial residual = 0.0187785, Final residual = 8.64833e-06, No Iterations 46
smoothSolver:  Solving for Uy, Initial residual = 0.0421926, Final residual = 9.88366e-06, No Iterations 52
DICPCG:  Solving for p, Initial residual = 0.199059, Final residual = 0.00905393, No Iterations 167
time step continuity errors : sum local = 1.21678e-06, global = 6.50048e-21, cumulative = 6.28514e-20
DICPCG:  Solving for p, Initial residual = 0.180894, Final residual = 8.83562e-07, No Iterations 233
time step continuity errors : sum local = 1.19459e-10, global = 1.10385e-20, cumulative = 7.38899e-20
ExecutionTime = 1.21 s  ClockTime = 1 s

Time = 0.004375

Courant Number mean: 0.0379235 max: 0.587401
smoothSolver:  Solving for Ux, Initial residual = 0.0143224, Final residual = 9.11266e-06, No Iterations 44
smoothSolver:  Solving for Uy, Initial residual = 0.0340282, Final residual = 9.82317e-06, No Iterations 51
DICPCG:  Solving for p, Initial residual = 0.109313, Final residual = 0.00514601, No Iterations 54
time step continuity errors : sum local = 6.26329e-07, global = -1.39135e-20, cumulative = 5.99764e-20
DICPCG:  Solving for p, Initial residual = 0.0996679, Final residual = 9.40993e-07, No Iterations 230
time step continuity errors : sum local = 1.14369e-10, global = -3.30742e-21, cumulative = 5.6669e-20
ExecutionTime = 1.36 s  ClockTime = 1 s

Time = 0.005

Courant Number mean: 0.0401644 max: 0.589756
smoothSolver:  Solving for Ux, Initial residual = 0.0118787, Final residual = 9.26025e-06, No Iterations 43
smoothSolver:  Solving for Uy, Initial residual = 0.0289336, Final residual = 9.92805e-06, No Iterations 50
DICPCG:  Solving for p, Initial residual = 0.0713565, Final residual = 0.00351479, No Iterations 94
time step continuity errors : sum local = 4.29905e-07, global = 4.78566e-20, cumulative = 1.04526e-19
DICPCG:  Solving for p, Initial residual = 0.066151, Final residual = 8.61484e-07, No Iterations 233
time step continuity errors : sum local = 1.01435e-10, global = -1.27314e-20, cumulative = 9.17943e-20
ExecutionTime = 1.52 s  ClockTime = 2 s

Time = 0.005625

Courant Number mean: 0.0421451 max: 0.591722
smoothSolver:  Solving for Ux, Initial residual = 0.010582, Final residual = 8.69318e-06, No Iterations 43
smoothSolver:  Solving for Uy, Initial residual = 0.0244584, Final residual = 9.94347e-06, No Iterations 49
DICPCG:  Solving for p, Initial residual = 0.0507522, Final residual = 0.00242405, No Iterations 163
time step continuity errors : sum local = 2.8184e-07, global = 2.84686e-20, cumulative = 1.20263e-19
DICPCG:  Solving for p, Initial residual = 0.0462688, Final residual = 9.51583e-07, No Iterations 225
time step continuity errors : sum local = 1.12252e-10, global = -1.24157e-20, cumulative = 1.07847e-19
ExecutionTime = 1.7 s  ClockTime = 2 s

Time = 0.00625

Courant Number mean: 0.043913 max: 0.593232
smoothSolver:  Solving for Ux, Initial residual = 0.00913184, Final residual = 8.99419e-06, No Iterations 42
smoothSolver:  Solving for Uy, Initial residual = 0.0211248, Final residual = 8.70373e-06, No Iterations 49
DICPCG:  Solving for p, Initial residual = 0.0349602, Final residual = 0.00172593, No Iterations 64
time step continuity errors : sum local = 2.23511e-07, global = -2.35439e-20, cumulative = 8.43033e-20
DICPCG:  Solving for p, Initial residual = 0.0325115, Final residual = 9.02281e-07, No Iterations 226
time step continuity errors : sum local = 1.03081e-10, global = -5.18725e-20, cumulative = 3.24308e-20
ExecutionTime = 1.85 s  ClockTime = 2 s

Time = 0.006875

Courant Number mean: 0.0455134 max: 0.594505
smoothSolver:  Solving for Ux, Initial residual = 0.00825546, Final residual = 9.83661e-06, No Iterations 41
smoothSolver:  Solving for Uy, Initial residual = 0.019547, Final residual = 9.49106e-06, No Iterations 48
DICPCG:  Solving for p, Initial residual = 0.0342908, Final residual = 0.00163127, No Iterations 170
time step continuity errors : sum local = 1.87379e-07, global = -2.92261e-20, cumulative = 3.20464e-21
DICPCG:  Solving for p, Initial residual = 0.0313116, Final residual = 8.7109e-07, No Iterations 225
time step continuity errors : sum local = 1.02466e-10, global = 4.61216e-20, cumulative = 4.93262e-20
ExecutionTime = 2.04 s  ClockTime = 2 s

Time = 0.0075

Courant Number mean: 0.0469689 max: 0.595593
smoothSolver:  Solving for Ux, Initial residual = 0.00731343, Final residual = 8.84834e-06, No Iterations 41
smoothSolver:  Solving for Uy, Initial residual = 0.0169134, Final residual = 9.63727e-06, No Iterations 47
DICPCG:  Solving for p, Initial residual = 0.0264329, Final residual = 0.00126244, No Iterations 155
time step continuity errors : sum local = 1.43973e-07, global = 2.71719e-20, cumulative = 7.64981e-20
DICPCG:  Solving for p, Initial residual = 0.0246019, Final residual = 8.36119e-07, No Iterations 223
time step continuity errors : sum local = 9.56734e-11, global = 1.77208e-20, cumulative = 9.4219e-20
ExecutionTime = 2.21 s  ClockTime = 2 s

Time = 0.008125

Courant Number mean: 0.0483027 max: 0.596512
smoothSolver:  Solving for Ux, Initial residual = 0.00655975, Final residual = 9.53682e-06, No Iterations 40
smoothSolver:  Solving for Uy, Initial residual = 0.0151702, Final residual = 8.77061e-06, No Iterations 47
DICPCG:  Solving for p, Initial residual = 0.02096, Final residual = 0.0010064, No Iterations 105
time step continuity errors : sum local = 1.28345e-07, global = -7.53579e-20, cumulative = 1.8861e-20
DICPCG:  Solving for p, Initial residual = 0.0195141, Final residual = 9.39447e-07, No Iterations 223
time step continuity errors : sum local = 1.06403e-10, global = 7.49653e-21, cumulative = 2.63576e-20
ExecutionTime = 2.37 s  ClockTime = 2 s

Time = 0.00875

Courant Number mean: 0.0495334 max: 0.597319
smoothSolver:  Solving for Ux, Initial residual = 0.00606376, Final residual = 8.95746e-06, No Iterations 40
smoothSolver:  Solving for Uy, Initial residual = 0.0142479, Final residual = 9.66858e-06, No Iterations 46
DICPCG:  Solving for p, Initial residual = 0.0217688, Final residual = 0.001078, No Iterations 164
time step continuity errors : sum local = 1.22784e-07, global = -3.70297e-20, cumulative = -1.06721e-20
DICPCG:  Solving for p, Initial residual = 0.0202208, Final residual = 8.6847e-07, No Iterations 222
time step continuity errors : sum local = 1.00082e-10, global = 2.4025e-20, cumulative = 1.33528e-20
ExecutionTime = 2.55 s  ClockTime = 3 s

Time = 0.009375

Courant Number mean: 0.0506707 max: 0.598031
smoothSolver:  Solving for Ux, Initial residual = 0.0055529, Final residual = 9.79937e-06, No Iterations 39
smoothSolver:  Solving for Uy, Initial residual = 0.0127741, Final residual = 8.65284e-06, No Iterations 46
DICPCG:  Solving for p, Initial residual = 0.0190955, Final residual = 0.000861462, No Iterations 168
time step continuity errors : sum local = 9.79024e-08, global = 9.23179e-21, cumulative = 2.25846e-20
DICPCG:  Solving for p, Initial residual = 0.0178954, Final residual = 8.90542e-07, No Iterations 222
time step continuity errors : sum local = 1.01303e-10, global = -2.26243e-20, cumulative = -3.96563e-23
ExecutionTime = 2.73 s  ClockTime = 3 s

Time = 0.01

Courant Number mean: 0.0517298 max: 0.598664
smoothSolver:  Solving for Ux, Initial residual = 0.00506932, Final residual = 9.06988e-06, No Iterations 39
smoothSolver:  Solving for Uy, Initial residual = 0.0115998, Final residual = 9.29928e-06, No Iterations 45
DICPCG:  Solving for p, Initial residual = 0.0147348, Final residual = 0.00072021, No Iterations 89
time step continuity errors : sum local = 8.64708e-08, global = 4.24537e-20, cumulative = 4.2414e-20
DICPCG:  Solving for p, Initial residual = 0.0137836, Final residual = 9.50229e-07, No Iterations 220
time step continuity errors : sum local = 1.07446e-10, global = 3.42841e-20, cumulative = 7.66981e-20
ExecutionTime = 2.88 s  ClockTime = 3 s

Time = 0.010625

Courant Number mean: 0.0527179 max: 0.599222
smoothSolver:  Solving for Ux, Initial residual = 0.00476963, Final residual = 8.67193e-06, No Iterations 39
smoothSolver:  Solving for Uy, Initial residual = 0.0107854, Final residual = 8.64378e-06, No Iterations 45
DICPCG:  Solving for p, Initial residual = 0.0154188, Final residual = 0.000722857, No Iterations 168
time step continuity errors : sum local = 8.20561e-08, global = 1.66597e-20, cumulative = 9.33578e-20
DICPCG:  Solving for p, Initial residual = 0.0143685, Final residual = 9.389e-07, No Iterations 220
time step continuity errors : sum local = 1.06819e-10, global = -4.53089e-20, cumulative = 4.80489e-20
ExecutionTime = 3.05 s  ClockTime = 3 s

Time = 0.01125

Courant Number mean: 0.0536404 max: 0.599728
smoothSolver:  Solving for Ux, Initial residual = 0.00437094, Final residual = 9.38811e-06, No Iterations 38
smoothSolver:  Solving for Uy, Initial residual = 0.00995415, Final residual = 9.38096e-06, No Iterations 44
DICPCG:  Solving for p, Initial residual = 0.0127737, Final residual = 0.000616049, No Iterations 64
time step continuity errors : sum local = 7.95792e-08, global = 1.32553e-20, cumulative = 6.13042e-20
DICPCG:  Solving for p, Initial residual = 0.011936, Final residual = 8.14606e-07, No Iterations 220
time step continuity errors : sum local = 9.20881e-11, global = -1.02704e-20, cumulative = 5.10339e-20
ExecutionTime = 3.19 s  ClockTime = 3 s

Time = 0.011875

Courant Number mean: 0.0545071 max: 0.600182
smoothSolver:  Solving for Ux, Initial residual = 0.00411624, Final residual = 8.93566e-06, No Iterations 38
smoothSolver:  Solving for Uy, Initial residual = 0.00953544, Final residual = 8.97402e-06, No Iterations 44
DICPCG:  Solving for p, Initial residual = 0.0141873, Final residual = 0.00068763, No Iterations 163
time step continuity errors : sum local = 7.81613e-08, global = 1.20472e-20, cumulative = 6.30811e-20
DICPCG:  Solving for p, Initial residual = 0.0133156, Final residual = 9.5177e-07, No Iterations 220
time step continuity errors : sum local = 1.08908e-10, global = -1.1727e-20, cumulative = 5.13541e-20
ExecutionTime = 3.37 s  ClockTime = 3 s

Time = 0.0125

Courant Number mean: 0.0553229 max: 0.600598
smoothSolver:  Solving for Ux, Initial residual = 0.00380764, Final residual = 9.76309e-06, No Iterations 37
smoothSolver:  Solving for Uy, Initial residual = 0.00873787, Final residual = 9.61938e-06, No Iterations 43
DICPCG:  Solving for p, Initial residual = 0.0127146, Final residual = 0.000592717, No Iterations 154
time step continuity errors : sum local = 6.71521e-08, global = -6.46647e-20, cumulative = -1.33106e-20
DICPCG:  Solving for p, Initial residual = 0.0119081, Final residual = 8.76424e-07, No Iterations 220
time step continuity errors : sum local = 9.92816e-11, global = 4.48968e-20, cumulative = 3.15861e-20
ExecutionTime = 3.54 s  ClockTime = 4 s

Time = 0.013125

Courant Number mean: 0.0560899 max: 0.600975
smoothSolver:  Solving for Ux, Initial residual = 0.00355131, Final residual = 9.20703e-06, No Iterations 37
smoothSolver:  Solving for Uy, Initial residual = 0.00811762, Final residual = 8.9951e-06, No Iterations 43
DICPCG:  Solving for p, Initial residual = 0.0104386, Final residual = 0.000515239, No Iterations 105
time step continuity errors : sum local = 6.41888e-08, global = -5.80878e-20, cumulative = -2.65017e-20
DICPCG:  Solving for p, Initial residual = 0.00982312, Final residual = 7.60347e-07, No Iterations 219
time step continuity errors : sum local = 8.59324e-11, global = 2.96665e-20, cumulative = 3.16479e-21
ExecutionTime = 3.69 s  ClockTime = 4 s

Time = 0.01375

Courant Number mean: 0.0568125 max: 0.601321
smoothSolver:  Solving for Ux, Initial residual = 0.00336026, Final residual = 8.76061e-06, No Iterations 37
smoothSolver:  Solving for Uy, Initial residual = 0.00773176, Final residual = 8.57239e-06, No Iterations 43
DICPCG:  Solving for p, Initial residual = 0.0109762, Final residual = 0.00052173, No Iterations 161
time step continuity errors : sum local = 5.90795e-08, global = -5.76588e-20, cumulative = -5.4494e-20
DICPCG:  Solving for p, Initial residual = 0.0103477, Final residual = 9.82786e-07, No Iterations 219
time step continuity errors : sum local = 1.11744e-10, global = -6.09713e-20, cumulative = -1.15465e-19
ExecutionTime = 3.86 s  ClockTime = 4 s

Time = 0.014375

Courant Number mean: 0.0574972 max: 0.601638
smoothSolver:  Solving for Ux, Initial residual = 0.00315249, Final residual = 9.72089e-06, No Iterations 36
smoothSolver:  Solving for Uy, Initial residual = 0.00720923, Final residual = 9.35684e-06, No Iterations 42
DICPCG:  Solving for p, Initial residual = 0.0098511, Final residual = 0.000480438, No Iterations 150
time step continuity errors : sum local = 5.45109e-08, global = 2.20569e-20, cumulative = -9.34084e-20
DICPCG:  Solving for p, Initial residual = 0.0092354, Final residual = 8.68135e-07, No Iterations 220
time step continuity errors : sum local = 9.82561e-11, global = -2.68632e-20, cumulative = -1.20272e-19
ExecutionTime = 4.03 s  ClockTime = 4 s

Time = 0.015

Courant Number mean: 0.0581462 max: 0.601932
smoothSolver:  Solving for Ux, Initial residual = 0.00295802, Final residual = 9.19e-06, No Iterations 36
smoothSolver:  Solving for Uy, Initial residual = 0.00675303, Final residual = 8.78696e-06, No Iterations 42
DICPCG:  Solving for p, Initial residual = 0.00832758, Final residual = 0.000411316, No Iterations 157
time step continuity errors : sum local = 4.6635e-08, global = -4.4325e-20, cumulative = -1.64597e-19
DICPCG:  Solving for p, Initial residual = 0.0078184, Final residual = 8.06279e-07, No Iterations 218
time step continuity errors : sum local = 9.10911e-11, global = -7.14257e-20, cumulative = -2.36022e-19
ExecutionTime = 4.21 s  ClockTime = 4 s

Time = 0.015625

Courant Number mean: 0.0587614 max: 0.602202
smoothSolver:  Solving for Ux, Initial residual = 0.00279435, Final residual = 8.73426e-06, No Iterations 36
smoothSolver:  Solving for Uy, Initial residual = 0.00636669, Final residual = 9.72344e-06, No Iterations 41
DICPCG:  Solving for p, Initial residual = 0.00782322, Final residual = 0.000376301, No Iterations 87
time step continuity errors : sum local = 4.45957e-08, global = -1.12188e-20, cumulative = -2.47241e-19
DICPCG:  Solving for p, Initial residual = 0.00733989, Final residual = 9.2313e-07, No Iterations 217
time step continuity errors : sum local = 1.04207e-10, global = 2.95437e-21, cumulative = -2.44287e-19
ExecutionTime = 4.36 s  ClockTime = 4 s

Time = 0.01625

Courant Number mean: 0.0593446 max: 0.60245
smoothSolver:  Solving for Ux, Initial residual = 0.00265278, Final residual = 9.77912e-06, No Iterations 35
smoothSolver:  Solving for Uy, Initial residual = 0.00606874, Final residual = 9.26387e-06, No Iterations 41
DICPCG:  Solving for p, Initial residual = 0.00778633, Final residual = 0.000337261, No Iterations 168
time step continuity errors : sum local = 3.82523e-08, global = -3.73849e-20, cumulative = -2.81672e-19
DICPCG:  Solving for p, Initial residual = 0.00733226, Final residual = 8.74288e-07, No Iterations 218
time step continuity errors : sum local = 9.89306e-11, global = 2.1124e-21, cumulative = -2.79559e-19
ExecutionTime = 4.53 s  ClockTime = 5 s

Time = 0.016875

Courant Number mean: 0.0598981 max: 0.602683
smoothSolver:  Solving for Ux, Initial residual = 0.00250134, Final residual = 9.26106e-06, No Iterations 35
smoothSolver:  Solving for Uy, Initial residual = 0.00573898, Final residual = 8.75494e-06, No Iterations 41
DICPCG:  Solving for p, Initial residual = 0.00676165, Final residual = 0.000316718, No Iterations 166
time step continuity errors : sum local = 3.58827e-08, global = 5.03251e-21, cumulative = -2.74527e-19
DICPCG:  Solving for p, Initial residual = 0.00638704, Final residual = 9.24926e-07, No Iterations 217
time step continuity errors : sum local = 1.04584e-10, global = 6.87407e-22, cumulative = -2.73839e-19
ExecutionTime = 4.7 s  ClockTime = 5 s

Time = 0.0175

Courant Number mean: 0.0604244 max: 0.602901
smoothSolver:  Solving for Ux, Initial residual = 0.00237465, Final residual = 8.83795e-06, No Iterations 35
smoothSolver:  Solving for Uy, Initial residual = 0.00541359, Final residual = 9.69066e-06, No Iterations 40
DICPCG:  Solving for p, Initial residual = 0.00606517, Final residual = 0.000299433, No Iterations 67
time step continuity errors : sum local = 3.41589e-08, global = 2.45293e-20, cumulative = -2.4931e-19
DICPCG:  Solving for p, Initial residual = 0.00572264, Final residual = 8.49314e-07, No Iterations 216
time step continuity errors : sum local = 9.58903e-11, global = 4.00705e-20, cumulative = -2.0924e-19
ExecutionTime = 4.83 s  ClockTime = 5 s

Time = 0.018125

Courant Number mean: 0.0609269 max: 0.6031
smoothSolver:  Solving for Ux, Initial residual = 0.00226315, Final residual = 9.93043e-06, No Iterations 34
smoothSolver:  Solving for Uy, Initial residual = 0.00514715, Final residual = 9.22565e-06, No Iterations 40
DICPCG:  Solving for p, Initial residual = 0.00642024, Final residual = 0.000272265, No Iterations 93
time step continuity errors : sum local = 3.56411e-08, global = -2.61901e-20, cumulative = -2.3543e-19
DICPCG:  Solving for p, Initial residual = 0.00611, Final residual = 9.37554e-07, No Iterations 216
time step continuity errors : sum local = 1.05869e-10, global = 3.07187e-20, cumulative = -2.04711e-19
ExecutionTime = 4.98 s  ClockTime = 5 s

Time = 0.01875

Courant Number mean: 0.0614059 max: 0.603288
smoothSolver:  Solving for Ux, Initial residual = 0.00216726, Final residual = 9.52088e-06, No Iterations 34
smoothSolver:  Solving for Uy, Initial residual = 0.00499618, Final residual = 8.91778e-06, No Iterations 40
DICPCG:  Solving for p, Initial residual = 0.00688403, Final residual = 0.000330341, No Iterations 161
time step continuity errors : sum local = 3.73486e-08, global = -2.02211e-21, cumulative = -2.06733e-19
DICPCG:  Solving for p, Initial residual = 0.00653314, Final residual = 8.78564e-07, No Iterations 216
time step continuity errors : sum local = 9.99169e-11, global = -4.38352e-20, cumulative = -2.50568e-19
ExecutionTime = 5.15 s  ClockTime = 5 s

Time = 0.019375

Courant Number mean: 0.0618628 max: 0.603465
smoothSolver:  Solving for Ux, Initial residual = 0.00205377, Final residual = 9.04705e-06, No Iterations 34
smoothSolver:  Solving for Uy, Initial residual = 0.00467264, Final residual = 9.74309e-06, No Iterations 39
DICPCG:  Solving for p, Initial residual = 0.00620516, Final residual = 0.000296343, No Iterations 156
time step continuity errors : sum local = 3.35303e-08, global = 2.39194e-20, cumulative = -2.26649e-19
DICPCG:  Solving for p, Initial residual = 0.00585475, Final residual = 8.57145e-07, No Iterations 208
time step continuity errors : sum local = 9.7251e-11, global = 1.83916e-20, cumulative = -2.08257e-19
ExecutionTime = 5.31 s  ClockTime = 5 s

Time = 0.02

Courant Number mean: 0.0622984 max: 0.603628
smoothSolver:  Solving for Ux, Initial residual = 0.00194579, Final residual = 8.62386e-06, No Iterations 34
smoothSolver:  Solving for Uy, Initial residual = 0.00445297, Final residual = 9.34125e-06, No Iterations 39
DICPCG:  Solving for p, Initial residual = 0.00552906, Final residual = 0.00025585, No Iterations 152
time step continuity errors : sum local = 2.89046e-08, global = -5.53157e-20, cumulative = -2.63573e-19
DICPCG:  Solving for p, Initial residual = 0.00520981, Final residual = 8.27668e-07, No Iterations 206
time step continuity errors : sum local = 9.36556e-11, global = 4.32855e-20, cumulative = -2.20287e-19
ExecutionTime = 5.47 s  ClockTime = 6 s

Time = 0.020625

Courant Number mean: 0.0627145 max: 0.603782
smoothSolver:  Solving for Ux, Initial residual = 0.0018565, Final residual = 9.69187e-06, No Iterations 33
smoothSolver:  Solving for Uy, Initial residual = 0.00423164, Final residual = 8.87446e-06, No Iterations 39
DICPCG:  Solving for p, Initial residual = 0.00488994, Final residual = 0.000228009, No Iterations 76
time step continuity errors : sum local = 2.73638e-08, global = -2.52569e-20, cumulative = -2.45544e-19
DICPCG:  Solving for p, Initial residual = 0.00462976, Final residual = 8.3894e-07, No Iterations 215
time step continuity errors : sum local = 9.48218e-11, global = 2.51085e-20, cumulative = -2.20436e-19
ExecutionTime = 5.61 s  ClockTime = 6 s

Time = 0.02125

Courant Number mean: 0.0631116 max: 0.603928
smoothSolver:  Solving for Ux, Initial residual = 0.00177986, Final residual = 9.31393e-06, No Iterations 33
smoothSolver:  Solving for Uy, Initial residual = 0.00404791, Final residual = 9.93563e-06, No Iterations 38
DICPCG:  Solving for p, Initial residual = 0.00530613, Final residual = 0.000263816, No Iterations 162
time step continuity errors : sum local = 2.99713e-08, global = -1.23358e-20, cumulative = -2.32772e-19
DICPCG:  Solving for p, Initial residual = 0.00502134, Final residual = 8.23957e-07, No Iterations 216
time step continuity errors : sum local = 9.31907e-11, global = -1.80328e-20, cumulative = -2.50805e-19
ExecutionTime = 5.78 s  ClockTime = 6 s

Time = 0.021875

Courant Number mean: 0.0634915 max: 0.604063
smoothSolver:  Solving for Ux, Initial residual = 0.00169794, Final residual = 8.89725e-06, No Iterations 33
smoothSolver:  Solving for Uy, Initial residual = 0.00386005, Final residual = 9.48726e-06, No Iterations 38
DICPCG:  Solving for p, Initial residual = 0.00486711, Final residual = 0.000240145, No Iterations 85
time step continuity errors : sum local = 2.83805e-08, global = -5.79136e-20, cumulative = -3.08718e-19
DICPCG:  Solving for p, Initial residual = 0.004593, Final residual = 8.54249e-07, No Iterations 216
time step continuity errors : sum local = 9.65654e-11, global = 8.34515e-20, cumulative = -2.25267e-19
ExecutionTime = 5.92 s  ClockTime = 6 s

Time = 0.0225

Courant Number mean: 0.0638559 max: 0.60419
smoothSolver:  Solving for Ux, Initial residual = 0.00162361, Final residual = 8.53661e-06, No Iterations 33
smoothSolver:  Solving for Uy, Initial residual = 0.00370637, Final residual = 9.10437e-06, No Iterations 38
DICPCG:  Solving for p, Initial residual = 0.00464614, Final residual = 0.000222627, No Iterations 158
time step continuity errors : sum local = 2.52411e-08, global = 4.30616e-20, cumulative = -1.82205e-19
DICPCG:  Solving for p, Initial residual = 0.00440006, Final residual = 7.43635e-07, No Iterations 216
time step continuity errors : sum local = 8.41203e-11, global = 9.73614e-21, cumulative = -1.72469e-19
ExecutionTime = 6.09 s  ClockTime = 6 s

Time = 0.023125

Courant Number mean: 0.0642052 max: 0.604311
smoothSolver:  Solving for Ux, Initial residual = 0.00155337, Final residual = 9.59771e-06, No Iterations 32
smoothSolver:  Solving for Uy, Initial residual = 0.00353195, Final residual = 8.67485e-06, No Iterations 38
DICPCG:  Solving for p, Initial residual = 0.00445646, Final residual = 0.000218156, No Iterations 86
time step continuity errors : sum local = 2.63235e-08, global = -7.33369e-20, cumulative = -2.45806e-19
DICPCG:  Solving for p, Initial residual = 0.00420989, Final residual = 8.884e-07, No Iterations 215
time step continuity errors : sum local = 1.00447e-10, global = -3.31741e-21, cumulative = -2.49123e-19
ExecutionTime = 6.23 s  ClockTime = 6 s

Time = 0.02375

Courant Number mean: 0.0645397 max: 0.604425
smoothSolver:  Solving for Ux, Initial residual = 0.00149092, Final residual = 9.23315e-06, No Iterations 32
smoothSolver:  Solving for Uy, Initial residual = 0.00339858, Final residual = 9.77288e-06, No Iterations 37
DICPCG:  Solving for p, Initial residual = 0.00451352, Final residual = 0.000216286, No Iterations 163
time step continuity errors : sum local = 2.44583e-08, global = -6.09523e-21, cumulative = -2.55218e-19
DICPCG:  Solving for p, Initial residual = 0.00424784, Final residual = 8.79745e-07, No Iterations 215
time step continuity errors : sum local = 9.95912e-11, global = 4.75476e-21, cumulative = -2.50464e-19
ExecutionTime = 6.39 s  ClockTime = 6 s

Time = 0.024375

Courant Number mean: 0.0648604 max: 0.604532
smoothSolver:  Solving for Ux, Initial residual = 0.00143241, Final residual = 8.89026e-06, No Iterations 32
smoothSolver:  Solving for Uy, Initial residual = 0.00324778, Final residual = 9.34722e-06, No Iterations 37
DICPCG:  Solving for p, Initial residual = 0.00419275, Final residual = 0.00020238, No Iterations 155
time step continuity errors : sum local = 2.29296e-08, global = 1.01285e-20, cumulative = -2.40335e-19
DICPCG:  Solving for p, Initial residual = 0.00396052, Final residual = 9.01335e-07, No Iterations 215
time step continuity errors : sum local = 1.01858e-10, global = 1.25819e-20, cumulative = -2.27753e-19
ExecutionTime = 6.55 s  ClockTime = 7 s

Time = 0.025

Courant Number mean: 0.0651677 max: 0.604634
smoothSolver:  Solving for Ux, Initial residual = 0.00136786, Final residual = 9.98483e-06, No Iterations 31
smoothSolver:  Solving for Uy, Initial residual = 0.00311038, Final residual = 8.95934e-06, No Iterations 37
DICPCG:  Solving for p, Initial residual = 0.00392138, Final residual = 0.000172478, No Iterations 88
time step continuity errors : sum local = 2.15586e-08, global = -3.7424e-20, cumulative = -2.65177e-19
DICPCG:  Solving for p, Initial residual = 0.0037134, Final residual = 9.12333e-07, No Iterations 213
time step continuity errors : sum local = 1.0312e-10, global = -4.99868e-20, cumulative = -3.15164e-19
ExecutionTime = 6.69 s  ClockTime = 7 s

Time = 0.025625

Courant Number mean: 0.0654625 max: 0.604729
smoothSolver:  Solving for Ux, Initial residual = 0.00132037, Final residual = 9.64254e-06, No Iterations 31
smoothSolver:  Solving for Uy, Initial residual = 0.00300106, Final residual = 8.62998e-06, No Iterations 37
DICPCG:  Solving for p, Initial residual = 0.00405094, Final residual = 0.000192651, No Iterations 156
time step continuity errors : sum local = 2.18389e-08, global = 1.7247e-20, cumulative = -2.97917e-19
DICPCG:  Solving for p, Initial residual = 0.00382875, Final residual = 8.01297e-07, No Iterations 216
time step continuity errors : sum local = 9.07068e-11, global = 8.14901e-20, cumulative = -2.16427e-19
ExecutionTime = 6.87 s  ClockTime = 7 s

Time = 0.02625

Courant Number mean: 0.0657456 max: 0.60482
smoothSolver:  Solving for Ux, Initial residual = 0.0012612, Final residual = 9.23304e-06, No Iterations 31
smoothSolver:  Solving for Uy, Initial residual = 0.00288004, Final residual = 9.70165e-06, No Iterations 36
DICPCG:  Solving for p, Initial residual = 0.00353568, Final residual = 0.000160381, No Iterations 157
time step continuity errors : sum local = 1.8186e-08, global = 1.3615e-20, cumulative = -2.02812e-19
DICPCG:  Solving for p, Initial residual = 0.00334742, Final residual = 8.87931e-07, No Iterations 208
time step continuity errors : sum local = 1.00513e-10, global = 1.39402e-20, cumulative = -1.88872e-19
ExecutionTime = 7.03 s  ClockTime = 7 s

Time = 0.026875

Courant Number mean: 0.0660168 max: 0.604906
smoothSolver:  Solving for Ux, Initial residual = 0.00121196, Final residual = 8.90184e-06, No Iterations 31
smoothSolver:  Solving for Uy, Initial residual = 0.00274833, Final residual = 9.27582e-06, No Iterations 36
DICPCG:  Solving for p, Initial residual = 0.00319019, Final residual = 0.000140578, No Iterations 88
time step continuity errors : sum local = 1.75593e-08, global = 6.44017e-20, cumulative = -1.2447e-19
DICPCG:  Solving for p, Initial residual = 0.00301679, Final residual = 9.9738e-07, No Iterations 213
time step continuity errors : sum local = 1.12679e-10, global = -9.41872e-21, cumulative = -1.33889e-19
ExecutionTime = 7.17 s  ClockTime = 7 s

Time = 0.0275

Courant Number mean: 0.0662772 max: 0.604986
smoothSolver:  Solving for Ux, Initial residual = 0.00116592, Final residual = 8.56394e-06, No Iterations 31
smoothSolver:  Solving for Uy, Initial residual = 0.00266702, Final residual = 8.98717e-06, No Iterations 36
DICPCG:  Solving for p, Initial residual = 0.00340818, Final residual = 0.000160531, No Iterations 168
time step continuity errors : sum local = 1.81736e-08, global = -2.21683e-20, cumulative = -1.56057e-19
DICPCG:  Solving for p, Initial residual = 0.00322986, Final residual = 9.6214e-07, No Iterations 211
time step continuity errors : sum local = 1.09066e-10, global = 4.42947e-20, cumulative = -1.11762e-19
ExecutionTime = 7.33 s  ClockTime = 7 s

Time = 0.028125

Courant Number mean: 0.0665276 max: 0.605063
smoothSolver:  Solving for Ux, Initial residual = 0.00112256, Final residual = 9.67691e-06, No Iterations 30
smoothSolver:  Solving for Uy, Initial residual = 0.00255021, Final residual = 8.5858e-06, No Iterations 36
DICPCG:  Solving for p, Initial residual = 0.00306691, Final residual = 0.000150044, No Iterations 156
time step continuity errors : sum local = 1.69545e-08, global = 5.55992e-20, cumulative = -5.61631e-20
DICPCG:  Solving for p, Initial residual = 0.00290161, Final residual = 7.96262e-07, No Iterations 214
time step continuity errors : sum local = 8.99843e-11, global = -9.79759e-21, cumulative = -6.59607e-20
ExecutionTime = 7.49 s  ClockTime = 8 s

Time = 0.02875

Courant Number mean: 0.0667687 max: 0.605137
smoothSolver:  Solving for Ux, Initial residual = 0.00107758, Final residual = 9.32024e-06, No Iterations 30
smoothSolver:  Solving for Uy, Initial residual = 0.00244908, Final residual = 9.68487e-06, No Iterations 35
DICPCG:  Solving for p, Initial residual = 0.00299649, Final residual = 0.000146437, No Iterations 88
time step continuity errors : sum local = 1.87012e-08, global = 2.78646e-20, cumulative = -3.80962e-20
DICPCG:  Solving for p, Initial residual = 0.00285758, Final residual = 9.36765e-07, No Iterations 203
time step continuity errors : sum local = 1.05872e-10, global = -8.5885e-21, cumulative = -4.66847e-20
ExecutionTime = 7.63 s  ClockTime = 8 s

Time = 0.029375

Courant Number mean: 0.0670007 max: 0.605205
smoothSolver:  Solving for Ux, Initial residual = 0.00104674, Final residual = 9.04464e-06, No Iterations 30
smoothSolver:  Solving for Uy, Initial residual = 0.00237041, Final residual = 9.35035e-06, No Iterations 35
DICPCG:  Solving for p, Initial residual = 0.00324458, Final residual = 0.000143807, No Iterations 157
time step continuity errors : sum local = 1.62766e-08, global = -2.25222e-20, cumulative = -6.92069e-20
DICPCG:  Solving for p, Initial residual = 0.00305269, Final residual = 9.21745e-07, No Iterations 215
time step continuity errors : sum local = 1.04367e-10, global = -1.27971e-20, cumulative = -8.2004e-20
ExecutionTime = 7.79 s  ClockTime = 8 s

Time = 0.03

Courant Number mean: 0.0672241 max: 0.605271
smoothSolver:  Solving for Ux, Initial residual = 0.000998879, Final residual = 8.6502e-06, No Iterations 30
smoothSolver:  Solving for Uy, Initial residual = 0.00228613, Final residual = 9.01292e-06, No Iterations 35
DICPCG:  Solving for p, Initial residual = 0.00281153, Final residual = 0.000131872, No Iterations 160
time step continuity errors : sum local = 1.49064e-08, global = 1.54651e-20, cumulative = -6.65389e-20
DICPCG:  Solving for p, Initial residual = 0.00265621, Final residual = 9.52383e-07, No Iterations 212
time step continuity errors : sum local = 1.078e-10, global = -1.67533e-20, cumulative = -8.32922e-20
ExecutionTime = 7.95 s  ClockTime = 8 s

Time = 0.030625

Courant Number mean: 0.067439 max: 0.605334
smoothSolver:  Solving for Ux, Initial residual = 0.000961805, Final residual = 9.78996e-06, No Iterations 29
smoothSolver:  Solving for Uy, Initial residual = 0.00218526, Final residual = 8.63757e-06, No Iterations 35
DICPCG:  Solving for p, Initial residual = 0.00250947, Final residual = 0.000125074, No Iterations 87
time step continuity errors : sum local = 1.514e-08, global = 1.14446e-20, cumulative = -7.18476e-20
DICPCG:  Solving for p, Initial residual = 0.00238206, Final residual = 9.48047e-07, No Iterations 212
time step continuity errors : sum local = 1.07113e-10, global = 8.12784e-21, cumulative = -6.37198e-20
ExecutionTime = 8.09 s  ClockTime = 8 s

Time = 0.03125

Courant Number mean: 0.0676459 max: 0.605393
smoothSolver:  Solving for Ux, Initial residual = 0.000924912, Final residual = 9.41167e-06, No Iterations 29
smoothSolver:  Solving for Uy, Initial residual = 0.00212016, Final residual = 9.80482e-06, No Iterations 34
DICPCG:  Solving for p, Initial residual = 0.00268433, Final residual = 0.000130846, No Iterations 157
time step continuity errors : sum local = 1.48144e-08, global = 4.44008e-20, cumulative = -1.9319e-20
DICPCG:  Solving for p, Initial residual = 0.00254335, Final residual = 9.28869e-07, No Iterations 209
time step continuity errors : sum local = 1.05141e-10, global = -1.92528e-20, cumulative = -3.85718e-20
ExecutionTime = 8.24 s  ClockTime = 8 s

Time = 0.031875

Courant Number mean: 0.0678449 max: 0.60545
smoothSolver:  Solving for Ux, Initial residual = 0.000897523, Final residual = 9.14904e-06, No Iterations 29
smoothSolver:  Solving for Uy, Initial residual = 0.00203758, Final residual = 9.42552e-06, No Iterations 34
DICPCG:  Solving for p, Initial residual = 0.00244952, Final residual = 0.000113344, No Iterations 154
time step continuity errors : sum local = 1.28302e-08, global = 1.27996e-20, cumulative = -2.57722e-20
DICPCG:  Solving for p, Initial residual = 0.00231382, Final residual = 8.45704e-07, No Iterations 212
time step continuity errors : sum local = 9.5626e-11, global = -5.18818e-20, cumulative = -7.7654e-20
ExecutionTime = 8.4 s  ClockTime = 8 s

Time = 0.0325

Courant Number mean: 0.0680365 max: 0.605504
smoothSolver:  Solving for Ux, Initial residual = 0.000861072, Final residual = 8.80547e-06, No Iterations 29
smoothSolver:  Solving for Uy, Initial residual = 0.0019613, Final residual = 9.08316e-06, No Iterations 34
DICPCG:  Solving for p, Initial residual = 0.00221658, Final residual = 0.000104679, No Iterations 92
time step continuity errors : sum local = 1.30976e-08, global = 4.73365e-21, cumulative = -7.29203e-20
DICPCG:  Solving for p, Initial residual = 0.00209904, Final residual = 9.01669e-07, No Iterations 209
time step continuity errors : sum local = 1.0191e-10, global = -6.69839e-20, cumulative = -1.39904e-19
ExecutionTime = 8.54 s  ClockTime = 9 s

Time = 0.033125

Courant Number mean: 0.0682212 max: 0.605556
smoothSolver:  Solving for Ux, Initial residual = 0.000837004, Final residual = 8.55172e-06, No Iterations 29
smoothSolver:  Solving for Uy, Initial residual = 0.00189958, Final residual = 8.78156e-06, No Iterations 34
DICPCG:  Solving for p, Initial residual = 0.00236024, Final residual = 9.75658e-05, No Iterations 155
time step continuity errors : sum local = 1.10322e-08, global = 8.34875e-20, cumulative = -5.64168e-20
DICPCG:  Solving for p, Initial residual = 0.00223296, Final residual = 9.93962e-07, No Iterations 211
time step continuity errors : sum local = 1.12551e-10, global = -1.95191e-21, cumulative = -5.83687e-20
ExecutionTime = 8.7 s  ClockTime = 9 s

Time = 0.03375

Courant Number mean: 0.0683993 max: 0.605604
smoothSolver:  Solving for Ux, Initial residual = 0.000801787, Final residual = 9.6067e-06, No Iterations 28
smoothSolver:  Solving for Uy, Initial residual = 0.00183505, Final residual = 9.93364e-06, No Iterations 33
DICPCG:  Solving for p, Initial residual = 0.00205556, Final residual = 9.79028e-05, No Iterations 158
time step continuity errors : sum local = 1.1101e-08, global = 2.86814e-20, cumulative = -2.96873e-20
DICPCG:  Solving for p, Initial residual = 0.00194257, Final residual = 8.82876e-07, No Iterations 211
time step continuity errors : sum local = 9.98049e-11, global = -2.04997e-20, cumulative = -5.01871e-20
ExecutionTime = 8.86 s  ClockTime = 9 s

Time = 0.034375

Courant Number mean: 0.0685707 max: 0.605651
smoothSolver:  Solving for Ux, Initial residual = 0.000775828, Final residual = 9.32062e-06, No Iterations 28
smoothSolver:  Solving for Uy, Initial residual = 0.00176114, Final residual = 9.55857e-06, No Iterations 33
DICPCG:  Solving for p, Initial residual = 0.00188998, Final residual = 8.31643e-05, No Iterations 86
time step continuity errors : sum local = 9.75421e-09, global = 4.63348e-20, cumulative = -3.85231e-21
DICPCG:  Solving for p, Initial residual = 0.00178115, Final residual = 9.43818e-07, No Iterations 194
time step continuity errors : sum local = 1.06804e-10, global = 7.98083e-20, cumulative = 7.5956e-20
ExecutionTime = 8.99 s  ClockTime = 9 s

Time = 0.035

Courant Number mean: 0.0687359 max: 0.605695
smoothSolver:  Solving for Ux, Initial residual = 0.000746212, Final residual = 8.96888e-06, No Iterations 28
smoothSolver:  Solving for Uy, Initial residual = 0.00170539, Final residual = 9.25061e-06, No Iterations 33
DICPCG:  Solving for p, Initial residual = 0.00185242, Final residual = 8.72895e-05, No Iterations 159
time step continuity errors : sum local = 9.88487e-09, global = -6.47434e-20, cumulative = 1.12127e-20
DICPCG:  Solving for p, Initial residual = 0.00174131, Final residual = 9.10569e-07, No Iterations 209
time step continuity errors : sum local = 1.02946e-10, global = 6.43594e-20, cumulative = 7.5572e-20
ExecutionTime = 9.15 s  ClockTime = 9 s

Time = 0.035625

Courant Number mean: 0.0688953 max: 0.605737
smoothSolver:  Solving for Ux, Initial residual = 0.000724228, Final residual = 8.71804e-06, No Iterations 28
smoothSolver:  Solving for Uy, Initial residual = 0.00164365, Final residual = 8.91751e-06, No Iterations 33
DICPCG:  Solving for p, Initial residual = 0.00178113, Final residual = 8.82017e-05, No Iterations 96
time step continuity errors : sum local = 1.10646e-08, global = -6.18336e-20, cumulative = 1.37384e-20
DICPCG:  Solving for p, Initial residual = 0.00168417, Final residual = 9.56707e-07, No Iterations 210
time step continuity errors : sum local = 1.08118e-10, global = 4.24791e-21, cumulative = 1.79863e-20
ExecutionTime = 9.29 s  ClockTime = 9 s

Time = 0.03625

Courant Number mean: 0.0690488 max: 0.605778
smoothSolver:  Solving for Ux, Initial residual = 0.00069757, Final residual = 9.81957e-06, No Iterations 27
smoothSolver:  Solving for Uy, Initial residual = 0.00160641, Final residual = 8.6948e-06, No Iterations 33
DICPCG:  Solving for p, Initial residual = 0.00190379, Final residual = 9.22097e-05, No Iterations 157
time step continuity errors : sum local = 1.04272e-08, global = -2.78609e-20, cumulative = -9.87459e-21
DICPCG:  Solving for p, Initial residual = 0.00180934, Final residual = 9.92642e-07, No Iterations 208
time step continuity errors : sum local = 1.12472e-10, global = -7.22487e-22, cumulative = -1.05971e-20
ExecutionTime = 9.45 s  ClockTime = 10 s

Time = 0.036875

Courant Number mean: 0.0691969 max: 0.605817
smoothSolver:  Solving for Ux, Initial residual = 0.000678087, Final residual = 9.55857e-06, No Iterations 27
smoothSolver:  Solving for Uy, Initial residual = 0.00154097, Final residual = 9.76388e-06, No Iterations 32
DICPCG:  Solving for p, Initial residual = 0.00173931, Final residual = 8.09679e-05, No Iterations 155
time step continuity errors : sum local = 9.18106e-09, global = 3.5699e-20, cumulative = 2.5102e-20
DICPCG:  Solving for p, Initial residual = 0.00164331, Final residual = 9.12553e-07, No Iterations 211
time step continuity errors : sum local = 1.03189e-10, global = -8.02909e-21, cumulative = 1.70729e-20
ExecutionTime = 9.6 s  ClockTime = 10 s

Time = 0.0375

Courant Number mean: 0.0693397 max: 0.605854
smoothSolver:  Solving for Ux, Initial residual = 0.000653418, Final residual = 9.23981e-06, No Iterations 27
smoothSolver:  Solving for Uy, Initial residual = 0.0014833, Final residual = 9.42435e-06, No Iterations 32
DICPCG:  Solving for p, Initial residual = 0.00168355, Final residual = 8.36815e-05, No Iterations 86
time step continuity errors : sum local = 1.02549e-08, global = -2.63948e-20, cumulative = -9.3219e-21
DICPCG:  Solving for p, Initial residual = 0.00159595, Final residual = 8.22272e-07, No Iterations 208
time step continuity errors : sum local = 9.29915e-11, global = 3.75388e-21, cumulative = -5.56802e-21
ExecutionTime = 9.74 s  ClockTime = 10 s

Time = 0.038125

Courant Number mean: 0.0694775 max: 0.605889
smoothSolver:  Solving for Ux, Initial residual = 0.000634232, Final residual = 8.9649e-06, No Iterations 27
smoothSolver:  Solving for Uy, Initial residual = 0.00143977, Final residual = 9.13265e-06, No Iterations 32
DICPCG:  Solving for p, Initial residual = 0.00173693, Final residual = 8.54445e-05, No Iterations 157
time step continuity errors : sum local = 9.68144e-09, global = 2.23516e-20, cumulative = 1.67836e-20
DICPCG:  Solving for p, Initial residual = 0.00164376, Final residual = 9.23276e-07, No Iterations 211
time step continuity errors : sum local = 1.04453e-10, global = -6.38275e-21, cumulative = 1.04009e-20
ExecutionTime = 9.89 s  ClockTime = 10 s

Time = 0.03875

Courant Number mean: 0.0696105 max: 0.605922
smoothSolver:  Solving for Ux, Initial residual = 0.00060817, Final residual = 8.60505e-06, No Iterations 27
smoothSolver:  Solving for Uy, Initial residual = 0.00140196, Final residual = 8.88888e-06, No Iterations 32
DICPCG:  Solving for p, Initial residual = 0.00159163, Final residual = 7.74134e-05, No Iterations 158
time step continuity errors : sum local = 8.75651e-09, global = 4.93156e-20, cumulative = 5.97165e-20
DICPCG:  Solving for p, Initial residual = 0.0015066, Final residual = 9.45467e-07, No Iterations 207
time step continuity errors : sum local = 1.06979e-10, global = 2.21873e-20, cumulative = 8.19038e-20
ExecutionTime = 10.05 s  ClockTime = 10 s

Time = 0.039375

Courant Number mean: 0.0697392 max: 0.605955
smoothSolver:  Solving for Ux, Initial residual = 0.000590302, Final residual = 9.79843e-06, No Iterations 26
smoothSolver:  Solving for Uy, Initial residual = 0.00134388, Final residual = 9.99933e-06, No Iterations 31
DICPCG:  Solving for p, Initial residual = 0.00145183, Final residual = 6.72514e-05, No Iterations 87
time step continuity errors : sum local = 8.11474e-09, global = 1.95411e-20, cumulative = 1.01445e-19
DICPCG:  Solving for p, Initial residual = 0.00138104, Final residual = 9.13212e-07, No Iterations 207
time step continuity errors : sum local = 1.03207e-10, global = -2.06389e-20, cumulative = 8.08061e-20
ExecutionTime = 10.18 s  ClockTime = 10 s

Time = 0.04

Courant Number mean: 0.0698635 max: 0.605986
smoothSolver:  Solving for Ux, Initial residual = 0.000569251, Final residual = 9.44259e-06, No Iterations 26
smoothSolver:  Solving for Uy, Initial residual = 0.00130786, Final residual = 9.72208e-06, No Iterations 31
DICPCG:  Solving for p, Initial residual = 0.00152898, Final residual = 7.22196e-05, No Iterations 156
time step continuity errors : sum local = 8.18395e-09, global = -5.54089e-20, cumulative = 2.53972e-20
DICPCG:  Solving for p, Initial residual = 0.00145294, Final residual = 8.90819e-07, No Iterations 205
time step continuity errors : sum local = 1.00763e-10, global = 3.27811e-20, cumulative = 5.81783e-20
ExecutionTime = 10.33 s  ClockTime = 10 s

Time = 0.040625

Courant Number mean: 0.0699836 max: 0.606015
smoothSolver:  Solving for Ux, Initial residual = 0.000554294, Final residual = 9.20452e-06, No Iterations 26
smoothSolver:  Solving for Uy, Initial residual = 0.00126318, Final residual = 9.39077e-06, No Iterations 31
DICPCG:  Solving for p, Initial residual = 0.0014011, Final residual = 6.89092e-05, No Iterations 94
time step continuity errors : sum local = 8.67684e-09, global = 2.97218e-20, cumulative = 8.79001e-20
DICPCG:  Solving for p, Initial residual = 0.00133079, Final residual = 9.32231e-07, No Iterations 206
time step continuity errors : sum local = 1.05655e-10, global = 8.84421e-20, cumulative = 1.76342e-19
ExecutionTime = 10.46 s  ClockTime = 11 s

Time = 0.04125

Courant Number mean: 0.0700997 max: 0.606044
smoothSolver:  Solving for Ux, Initial residual = 0.000532223, Final residual = 8.82899e-06, No Iterations 26
smoothSolver:  Solving for Uy, Initial residual = 0.00123944, Final residual = 9.19219e-06, No Iterations 31
DICPCG:  Solving for p, Initial residual = 0.00150417, Final residual = 7.12317e-05, No Iterations 163
time step continuity errors : sum local = 8.05316e-09, global = 2.15734e-21, cumulative = 1.785e-19
DICPCG:  Solving for p, Initial residual = 0.00143007, Final residual = 9.95168e-07, No Iterations 206
time step continuity errors : sum local = 1.12642e-10, global = -8.25696e-21, cumulative = 1.70243e-19
ExecutionTime = 10.63 s  ClockTime = 11 s

Time = 0.041875

Courant Number mean: 0.0702119 max: 0.606071
smoothSolver:  Solving for Ux, Initial residual = 0.000520071, Final residual = 8.63947e-06, No Iterations 26
smoothSolver:  Solving for Uy, Initial residual = 0.00118588, Final residual = 8.79033e-06, No Iterations 31
DICPCG:  Solving for p, Initial residual = 0.00137993, Final residual = 5.78609e-05, No Iterations 154
time step continuity errors : sum local = 6.55477e-09, global = 9.96749e-21, cumulative = 1.8021e-19
DICPCG:  Solving for p, Initial residual = 0.00130378, Final residual = 9.28504e-07, No Iterations 208
time step continuity errors : sum local = 1.04982e-10, global = -6.75811e-20, cumulative = 1.12629e-19
ExecutionTime = 10.78 s  ClockTime = 11 s

Time = 0.0425

Courant Number mean: 0.0703203 max: 0.606097
smoothSolver:  Solving for Ux, Initial residual = 0.000501553, Final residual = 9.77876e-06, No Iterations 25
smoothSolver:  Solving for Uy, Initial residual = 0.00114627, Final residual = 9.98706e-06, No Iterations 30
DICPCG:  Solving for p, Initial residual = 0.00120507, Final residual = 5.78905e-05, No Iterations 88
time step continuity errors : sum local = 7.1699e-09, global = -2.97056e-20, cumulative = 8.29234e-20
DICPCG:  Solving for p, Initial residual = 0.00114455, Final residual = 9.37613e-07, No Iterations 206
time step continuity errors : sum local = 1.06039e-10, global = -4.48833e-20, cumulative = 3.80401e-20
ExecutionTime = 10.91 s  ClockTime = 11 s

Time = 0.043125

Courant Number mean: 0.0704251 max: 0.606121
smoothSolver:  Solving for Ux, Initial residual = 0.000488095, Final residual = 9.51378e-06, No Iterations 25
smoothSolver:  Solving for Uy, Initial residual = 0.00111192, Final residual = 9.67219e-06, No Iterations 30
DICPCG:  Solving for p, Initial residual = 0.00132061, Final residual = 5.99776e-05, No Iterations 155
time step continuity errors : sum local = 6.79161e-09, global = 3.97718e-20, cumulative = 7.78119e-20
DICPCG:  Solving for p, Initial residual = 0.00125329, Final residual = 9.18144e-07, No Iterations 200
time step continuity errors : sum local = 1.04028e-10, global = -1.26656e-20, cumulative = 6.51463e-20
ExecutionTime = 11.06 s  ClockTime = 11 s

Time = 0.04375

Courant Number mean: 0.0705264 max: 0.606145
smoothSolver:  Solving for Ux, Initial residual = 0.000470495, Final residual = 9.17872e-06, No Iterations 25
smoothSolver:  Solving for Uy, Initial residual = 0.00107953, Final residual = 9.39087e-06, No Iterations 30
DICPCG:  Solving for p, Initial residual = 0.00116175, Final residual = 5.36846e-05, No Iterations 156
time step continuity errors : sum local = 6.07507e-09, global = 9.69162e-21, cumulative = 7.48379e-20
DICPCG:  Solving for p, Initial residual = 0.00109845, Final residual = 9.10627e-07, No Iterations 206
time step continuity errors : sum local = 1.02979e-10, global = 1.15369e-20, cumulative = 8.63748e-20
ExecutionTime = 11.22 s  ClockTime = 11 s

Time = 0.044375

Courant Number mean: 0.0706244 max: 0.606168
smoothSolver:  Solving for Ux, Initial residual = 0.000456656, Final residual = 8.92439e-06, No Iterations 25
smoothSolver:  Solving for Uy, Initial residual = 0.00104128, Final residual = 9.07577e-06, No Iterations 30
DICPCG:  Solving for p, Initial residual = 0.0010555, Final residual = 4.4447e-05, No Iterations 86
time step continuity errors : sum local = 5.39649e-09, global = 1.56789e-21, cumulative = 8.79427e-20
DICPCG:  Solving for p, Initial residual = 0.000995377, Final residual = 8.47261e-07, No Iterations 201
time step continuity errors : sum local = 9.59458e-11, global = -1.84814e-21, cumulative = 8.60946e-20
ExecutionTime = 11.35 s  ClockTime = 11 s

Time = 0.045

Courant Number mean: 0.0707192 max: 0.60619
smoothSolver:  Solving for Ux, Initial residual = 0.000440124, Final residual = 8.59687e-06, No Iterations 25
smoothSolver:  Solving for Uy, Initial residual = 0.00101478, Final residual = 8.83508e-06, No Iterations 30
DICPCG:  Solving for p, Initial residual = 0.0010727, Final residual = 4.9835e-05, No Iterations 158
time step continuity errors : sum local = 5.63339e-09, global = 4.95429e-20, cumulative = 1.35637e-19
DICPCG:  Solving for p, Initial residual = 0.00101936, Final residual = 9.86027e-07, No Iterations 197
time step continuity errors : sum local = 1.11493e-10, global = -6.56335e-20, cumulative = 7.0004e-20
ExecutionTime = 11.5 s  ClockTime = 12 s

Time = 0.045625

Courant Number mean: 0.0708109 max: 0.606211
smoothSolver:  Solving for Ux, Initial residual = 0.000428784, Final residual = 9.81058e-06, No Iterations 24
smoothSolver:  Solving for Uy, Initial residual = 0.000981275, Final residual = 8.54279e-06, No Iterations 30
DICPCG:  Solving for p, Initial residual = 0.00103296, Final residual = 4.92935e-05, No Iterations 97
time step continuity errors : sum local = 6.27014e-09, global = 1.82593e-20, cumulative = 8.82633e-20
DICPCG:  Solving for p, Initial residual = 0.000983516, Final residual = 9.24434e-07, No Iterations 195
time step continuity errors : sum local = 1.04651e-10, global = -3.21029e-21, cumulative = 8.5053e-20
ExecutionTime = 11.62 s  ClockTime = 12 s

Time = 0.04625

Courant Number mean: 0.0708995 max: 0.606231
smoothSolver:  Solving for Ux, Initial residual = 0.000413233, Final residual = 9.44061e-06, No Iterations 24
smoothSolver:  Solving for Uy, Initial residual = 0.000962826, Final residual = 9.79784e-06, No Iterations 29
DICPCG:  Solving for p, Initial residual = 0.00112752, Final residual = 5.3745e-05, No Iterations 165
time step continuity errors : sum local = 6.07824e-09, global = -2.58479e-20, cumulative = 5.92052e-20
DICPCG:  Solving for p, Initial residual = 0.00107492, Final residual = 9.3179e-07, No Iterations 205
time step continuity errors : sum local = 1.05486e-10, global = 9.996e-20, cumulative = 1.59165e-19
ExecutionTime = 11.78 s  ClockTime = 12 s

Time = 0.046875

Courant Number mean: 0.0709852 max: 0.606251
smoothSolver:  Solving for Ux, Initial residual = 0.000404044, Final residual = 9.24157e-06, No Iterations 24
smoothSolver:  Solving for Uy, Initial residual = 0.000924204, Final residual = 9.3966e-06, No Iterations 29
DICPCG:  Solving for p, Initial residual = 0.00102743, Final residual = 4.39292e-05, No Iterations 155
time step continuity errors : sum local = 4.9882e-09, global = 6.49611e-21, cumulative = 1.65661e-19
DICPCG:  Solving for p, Initial residual = 0.000973266, Final residual = 9.47027e-07, No Iterations 193
time step continuity errors : sum local = 1.07182e-10, global = -7.78243e-20, cumulative = 8.7837e-20
ExecutionTime = 11.93 s  ClockTime = 12 s

Time = 0.0475

Courant Number mean: 0.0710682 max: 0.606269
smoothSolver:  Solving for Ux, Initial residual = 0.000391129, Final residual = 8.96891e-06, No Iterations 24
smoothSolver:  Solving for Uy, Initial residual = 0.000892612, Final residual = 9.10806e-06, No Iterations 29
DICPCG:  Solving for p, Initial residual = 0.000921327, Final residual = 4.53009e-05, No Iterations 84
time step continuity errors : sum local = 5.48158e-09, global = -4.89756e-20, cumulative = 3.88613e-20
DICPCG:  Solving for p, Initial residual = 0.000872988, Final residual = 9.90077e-07, No Iterations 203
time step continuity errors : sum local = 1.12072e-10, global = -2.47609e-20, cumulative = 1.41004e-20
ExecutionTime = 12.05 s  ClockTime = 12 s

Time = 0.048125

Courant Number mean: 0.0711486 max: 0.606287
smoothSolver:  Solving for Ux, Initial residual = 0.000379037, Final residual = 8.69367e-06, No Iterations 24
smoothSolver:  Solving for Uy, Initial residual = 0.000867885, Final residual = 8.84124e-06, No Iterations 29
DICPCG:  Solving for p, Initial residual = 0.000962495, Final residual = 4.52723e-05, No Iterations 156
time step continuity errors : sum local = 5.13218e-09, global = -2.10877e-21, cumulative = 1.19916e-20
DICPCG:  Solving for p, Initial residual = 0.000913171, Final residual = 9.80532e-07, No Iterations 203
time step continuity errors : sum local = 1.10879e-10, global = -2.59136e-21, cumulative = 9.40029e-21
ExecutionTime = 12.2 s  ClockTime = 12 s

Time = 0.04875

Courant Number mean: 0.0712266 max: 0.606304
smoothSolver:  Solving for Ux, Initial residual = 0.000367264, Final residual = 9.86432e-06, No Iterations 23
smoothSolver:  Solving for Uy, Initial residual = 0.000842485, Final residual = 8.58851e-06, No Iterations 29
DICPCG:  Solving for p, Initial residual = 0.000887553, Final residual = 4.06594e-05, No Iterations 155
time step continuity errors : sum local = 4.61294e-09, global = 2.12242e-21, cumulative = 1.15227e-20
DICPCG:  Solving for p, Initial residual = 0.000842117, Final residual = 8.22667e-07, No Iterations 205
time step continuity errors : sum local = 9.30374e-11, global = -2.7692e-20, cumulative = -1.61693e-20
ExecutionTime = 12.36 s  ClockTime = 12 s

Time = 0.049375

Courant Number mean: 0.071302 max: 0.606321
smoothSolver:  Solving for Ux, Initial residual = 0.000356656, Final residual = 9.59076e-06, No Iterations 23
smoothSolver:  Solving for Uy, Initial residual = 0.000815338, Final residual = 9.74613e-06, No Iterations 28
DICPCG:  Solving for p, Initial residual = 0.000796629, Final residual = 3.53927e-05, No Iterations 86
time step continuity errors : sum local = 4.33502e-09, global = -8.69081e-21, cumulative = -2.48601e-20
DICPCG:  Solving for p, Initial residual = 0.000754322, Final residual = 9.64813e-07, No Iterations 205
time step continuity errors : sum local = 1.09122e-10, global = 1.0866e-19, cumulative = 8.38002e-20
ExecutionTime = 12.49 s  ClockTime = 13 s

Time = 0.05

Courant Number mean: 0.0713749 max: 0.606336
smoothSolver:  Solving for Ux, Initial residual = 0.000343862, Final residual = 9.23946e-06, No Iterations 23
smoothSolver:  Solving for Uy, Initial residual = 0.000796211, Final residual = 9.5056e-06, No Iterations 28
DICPCG:  Solving for p, Initial residual = 0.000855809, Final residual = 4.22442e-05, No Iterations 157
time step continuity errors : sum local = 4.78594e-09, global = -5.53975e-20, cumulative = 2.84027e-20
DICPCG:  Solving for p, Initial residual = 0.000812666, Final residual = 9.44869e-07, No Iterations 199
time step continuity errors : sum local = 1.07014e-10, global = 3.36357e-20, cumulative = 6.20385e-20
ExecutionTime = 12.64 s  ClockTime = 13 s

Time = 0.050625

Courant Number mean: 0.0714456 max: 0.606351
smoothSolver:  Solving for Ux, Initial residual = 0.000336034, Final residual = 9.03364e-06, No Iterations 23
smoothSolver:  Solving for Uy, Initial residual = 0.000770843, Final residual = 9.20108e-06, No Iterations 28
DICPCG:  Solving for p, Initial residual = 0.000817932, Final residual = 4.07845e-05, No Iterations 106
time step continuity errors : sum local = 5.17616e-09, global = 2.03226e-20, cumulative = 8.23611e-20
DICPCG:  Solving for p, Initial residual = 0.000775471, Final residual = 9.49142e-07, No Iterations 205
time step continuity errors : sum local = 1.07414e-10, global = -4.19202e-20, cumulative = 4.04409e-20
ExecutionTime = 12.78 s  ClockTime = 13 s

Time = 0.05125

Courant Number mean: 0.0715141 max: 0.606366
smoothSolver:  Solving for Ux, Initial residual = 0.000324236, Final residual = 8.7063e-06, No Iterations 23
smoothSolver:  Solving for Uy, Initial residual = 0.000755955, Final residual = 9.00707e-06, No Iterations 28
DICPCG:  Solving for p, Initial residual = 0.00086974, Final residual = 4.14667e-05, No Iterations 163
time step continuity errors : sum local = 4.69018e-09, global = 1.04414e-19, cumulative = 1.44855e-19
DICPCG:  Solving for p, Initial residual = 0.000825557, Final residual = 9.49199e-07, No Iterations 202
time step continuity errors : sum local = 1.07473e-10, global = 4.42798e-20, cumulative = 1.89135e-19
ExecutionTime = 12.93 s  ClockTime = 13 s

Time = 0.051875

Courant Number mean: 0.0715805 max: 0.60638
smoothSolver:  Solving for Ux, Initial residual = 0.000316582, Final residual = 9.95844e-06, No Iterations 22
smoothSolver:  Solving for Uy, Initial residual = 0.000727252, Final residual = 8.65709e-06, No Iterations 28
DICPCG:  Solving for p, Initial residual = 0.000865903, Final residual = 4.22113e-05, No Iterations 153
time step continuity errors : sum local = 4.78497e-09, global = -4.38434e-20, cumulative = 1.45291e-19
DICPCG:  Solving for p, Initial residual = 0.000824926, Final residual = 9.84562e-07, No Iterations 203
time step continuity errors : sum local = 1.11343e-10, global = -2.71721e-20, cumulative = 1.18119e-19
ExecutionTime = 13.08 s  ClockTime = 13 s

Time = 0.0525

Courant Number mean: 0.0716448 max: 0.606394
smoothSolver:  Solving for Ux, Initial residual = 0.000306472, Final residual = 9.66118e-06, No Iterations 22
smoothSolver:  Solving for Uy, Initial residual = 0.000704929, Final residual = 9.86116e-06, No Iterations 27
DICPCG:  Solving for p, Initial residual = 0.000745701, Final residual = 3.64062e-05, No Iterations 87
time step continuity errors : sum local = 4.48827e-09, global = -1.33769e-20, cumulative = 1.04742e-19
DICPCG:  Solving for p, Initial residual = 0.000709993, Final residual = 9.41912e-07, No Iterations 190
time step continuity errors : sum local = 1.06522e-10, global = -7.50333e-20, cumulative = 2.97088e-20
ExecutionTime = 13.2 s  ClockTime = 13 s

Time = 0.053125

Courant Number mean: 0.0717071 max: 0.606407
smoothSolver:  Solving for Ux, Initial residual = 0.000299035, Final residual = 9.42179e-06, No Iterations 22
smoothSolver:  Solving for Uy, Initial residual = 0.000683661, Final residual = 9.54994e-06, No Iterations 27
DICPCG:  Solving for p, Initial residual = 0.000774642, Final residual = 3.54895e-05, No Iterations 156
time step continuity errors : sum local = 4.01932e-09, global = 4.02669e-20, cumulative = 6.99757e-20
DICPCG:  Solving for p, Initial residual = 0.000740514, Final residual = 9.62391e-07, No Iterations 202
time step continuity errors : sum local = 1.08854e-10, global = -2.7039e-20, cumulative = 4.29366e-20
ExecutionTime = 13.35 s  ClockTime = 13 s

Time = 0.05375

Courant Number mean: 0.0717674 max: 0.606419
smoothSolver:  Solving for Ux, Initial residual = 0.000289035, Final residual = 9.11124e-06, No Iterations 22
smoothSolver:  Solving for Uy, Initial residual = 0.000665774, Final residual = 9.3036e-06, No Iterations 27
DICPCG:  Solving for p, Initial residual = 0.000683777, Final residual = 3.00629e-05, No Iterations 155
time step continuity errors : sum local = 3.41298e-09, global = -9.18567e-20, cumulative = -4.892e-20
DICPCG:  Solving for p, Initial residual = 0.000649204, Final residual = 9.92519e-07, No Iterations 201
time step continuity errors : sum local = 1.12248e-10, global = -1.85157e-20, cumulative = -6.74358e-20
ExecutionTime = 13.49 s  ClockTime = 14 s

Time = 0.054375

Courant Number mean: 0.0718259 max: 0.606431
smoothSolver:  Solving for Ux, Initial residual = 0.000280656, Final residual = 8.86121e-06, No Iterations 22
smoothSolver:  Solving for Uy, Initial residual = 0.000644882, Final residual = 9.02378e-06, No Iterations 27
DICPCG:  Solving for p, Initial residual = 0.000625425, Final residual = 3.01382e-05, No Iterations 86
time step continuity errors : sum local = 3.69485e-09, global = -4.93954e-21, cumulative = -7.23753e-20
DICPCG:  Solving for p, Initial residual = 0.000596412, Final residual = 9.56266e-07, No Iterations 204
time step continuity errors : sum local = 1.08115e-10, global = -7.88511e-21, cumulative = -8.02604e-20
ExecutionTime = 13.62 s  ClockTime = 14 s

Time = 0.055

Courant Number mean: 0.0718827 max: 0.606443
smoothSolver:  Solving for Ux, Initial residual = 0.000270967, Final residual = 8.54773e-06, No Iterations 22
smoothSolver:  Solving for Uy, Initial residual = 0.00062998, Final residual = 8.80451e-06, No Iterations 27
DICPCG:  Solving for p, Initial residual = 0.000687346, Final residual = 3.43121e-05, No Iterations 158
time step continuity errors : sum local = 3.88827e-09, global = -5.87643e-21, cumulative = -8.61368e-20
DICPCG:  Solving for p, Initial residual = 0.000654938, Final residual = 9.63636e-07, No Iterations 197
time step continuity errors : sum local = 1.09014e-10, global = 1.04458e-20, cumulative = -7.5691e-20
ExecutionTime = 13.77 s  ClockTime = 14 s

Time = 0.055625

Courant Number mean: 0.0719378 max: 0.606454
smoothSolver:  Solving for Ux, Initial residual = 0.000264971, Final residual = 9.78446e-06, No Iterations 21
smoothSolver:  Solving for Uy, Initial residual = 0.000610411, Final residual = 9.99012e-06, No Iterations 26
DICPCG:  Solving for p, Initial residual = 0.000667334, Final residual = 3.13028e-05, No Iterations 154
time step continuity errors : sum local = 3.55357e-09, global = -3.57191e-20, cumulative = -1.1141e-19
DICPCG:  Solving for p, Initial residual = 0.000633717, Final residual = 9.13232e-07, No Iterations 203
time step continuity errors : sum local = 1.0326e-10, global = 2.36767e-20, cumulative = -8.77334e-20
ExecutionTime = 13.91 s  ClockTime = 14 s

Time = 0.05625

Courant Number mean: 0.0719911 max: 0.606465
smoothSolver:  Solving for Ux, Initial residual = 0.000256354, Final residual = 9.48291e-06, No Iterations 21
smoothSolver:  Solving for Uy, Initial residual = 0.000592472, Final residual = 9.70492e-06, No Iterations 26
DICPCG:  Solving for p, Initial residual = 0.000617231, Final residual = 2.99605e-05, No Iterations 89
time step continuity errors : sum local = 3.68463e-09, global = -4.55369e-20, cumulative = -1.3327e-19
DICPCG:  Solving for p, Initial residual = 0.000591325, Final residual = 9.50022e-07, No Iterations 202
time step continuity errors : sum local = 1.07532e-10, global = -6.31711e-20, cumulative = -1.96441e-19
ExecutionTime = 14.04 s  ClockTime = 14 s

Time = 0.056875

Courant Number mean: 0.0720428 max: 0.606475
smoothSolver:  Solving for Ux, Initial residual = 0.000250677, Final residual = 9.26361e-06, No Iterations 21
smoothSolver:  Solving for Uy, Initial residual = 0.000575326, Final residual = 9.40924e-06, No Iterations 26
DICPCG:  Solving for p, Initial residual = 0.000662367, Final residual = 2.91131e-05, No Iterations 158
time step continuity errors : sum local = 3.30067e-09, global = -1.05773e-20, cumulative = -2.07019e-19
DICPCG:  Solving for p, Initial residual = 0.000633442, Final residual = 9.31421e-07, No Iterations 187
time step continuity errors : sum local = 1.05404e-10, global = -8.2567e-20, cumulative = -2.89586e-19
ExecutionTime = 14.18 s  ClockTime = 14 s

Time = 0.0575

Courant Number mean: 0.0720931 max: 0.606485
smoothSolver:  Solving for Ux, Initial residual = 0.000242998, Final residual = 8.982e-06, No Iterations 21
smoothSolver:  Solving for Uy, Initial residual = 0.000559584, Final residual = 9.15539e-06, No Iterations 26
DICPCG:  Solving for p, Initial residual = 0.000587463, Final residual = 2.90993e-05, No Iterations 155
time step continuity errors : sum local = 3.29232e-09, global = 2.0049e-20, cumulative = -2.69537e-19
DICPCG:  Solving for p, Initial residual = 0.000559017, Final residual = 8.79463e-07, No Iterations 202
time step continuity errors : sum local = 9.9499e-11, global = 4.26905e-20, cumulative = -2.26846e-19
ExecutionTime = 14.34 s  ClockTime = 14 s

Time = 0.058125

Courant Number mean: 0.0721419 max: 0.606494
smoothSolver:  Solving for Ux, Initial residual = 0.000235869, Final residual = 8.73144e-06, No Iterations 21
smoothSolver:  Solving for Uy, Initial residual = 0.000542678, Final residual = 8.8934e-06, No Iterations 26
DICPCG:  Solving for p, Initial residual = 0.000535266, Final residual = 2.53746e-05, No Iterations 86
time step continuity errors : sum local = 3.02156e-09, global = 1.21894e-19, cumulative = -1.04952e-19
DICPCG:  Solving for p, Initial residual = 0.000509999, Final residual = 8.73383e-07, No Iterations 186
time step continuity errors : sum local = 9.89244e-11, global = -5.09516e-20, cumulative = -1.55903e-19
ExecutionTime = 14.46 s  ClockTime = 15 s

Time = 0.05875

Courant Number mean: 0.0721892 max: 0.606504
smoothSolver:  Solving for Ux, Initial residual = 0.000227665, Final residual = 9.85926e-06, No Iterations 20
smoothSolver:  Solving for Uy, Initial residual = 0.000530038, Final residual = 8.67764e-06, No Iterations 26
DICPCG:  Solving for p, Initial residual = 0.000599567, Final residual = 2.57292e-05, No Iterations 152
time step continuity errors : sum local = 2.91612e-09, global = 3.87085e-20, cumulative = -1.17195e-19
DICPCG:  Solving for p, Initial residual = 0.000577261, Final residual = 9.54205e-07, No Iterations 188
time step continuity errors : sum local = 1.08241e-10, global = 2.51679e-20, cumulative = -9.20268e-20
ExecutionTime = 14.6 s  ClockTime = 15 s

Time = 0.059375

Courant Number mean: 0.0722351 max: 0.606513
smoothSolver:  Solving for Ux, Initial residual = 0.000222621, Final residual = 9.64239e-06, No Iterations 20
smoothSolver:  Solving for Uy, Initial residual = 0.000514345, Final residual = 9.86033e-06, No Iterations 25
DICPCG:  Solving for p, Initial residual = 0.000532826, Final residual = 2.64463e-05, No Iterations 88
time step continuity errors : sum local = 3.33285e-09, global = -2.97722e-20, cumulative = -1.21799e-19
DICPCG:  Solving for p, Initial residual = 0.00051481, Final residual = 9.70229e-07, No Iterations 202
time step continuity errors : sum local = 1.0981e-10, global = -8.45337e-20, cumulative = -2.06333e-19
ExecutionTime = 14.72 s  ClockTime = 15 s

Time = 0.06

Courant Number mean: 0.0722796 max: 0.606521
smoothSolver:  Solving for Ux, Initial residual = 0.000215025, Final residual = 9.29977e-06, No Iterations 20
smoothSolver:  Solving for Uy, Initial residual = 0.000504016, Final residual = 9.6481e-06, No Iterations 25
DICPCG:  Solving for p, Initial residual = 0.000623198, Final residual = 3.02405e-05, No Iterations 166
time step continuity errors : sum local = 3.42085e-09, global = 3.78641e-20, cumulative = -1.68469e-19
DICPCG:  Solving for p, Initial residual = 0.000597909, Final residual = 9.27058e-07, No Iterations 202
time step continuity errors : sum local = 1.04895e-10, global = -1.44387e-21, cumulative = -1.69912e-19
ExecutionTime = 14.87 s  ClockTime = 15 s

Time = 0.060625

Courant Number mean: 0.0723229 max: 0.606529
smoothSolver:  Solving for Ux, Initial residual = 0.000210739, Final residual = 9.11935e-06, No Iterations 20
smoothSolver:  Solving for Uy, Initial residual = 0.000487232, Final residual = 9.31896e-06, No Iterations 25
DICPCG:  Solving for p, Initial residual = 0.00054731, Final residual = 2.66017e-05, No Iterations 156
time step continuity errors : sum local = 3.02121e-09, global = 9.5024e-20, cumulative = -7.48884e-20
DICPCG:  Solving for p, Initial residual = 0.000522218, Final residual = 9.9622e-07, No Iterations 198
time step continuity errors : sum local = 1.12894e-10, global = 2.28282e-22, cumulative = -7.46601e-20
ExecutionTime = 15.02 s  ClockTime = 15 s

Time = 0.06125

Courant Number mean: 0.0723648 max: 0.606537
smoothSolver:  Solving for Ux, Initial residual = 0.000204342, Final residual = 8.86105e-06, No Iterations 20
smoothSolver:  Solving for Uy, Initial residual = 0.000472234, Final residual = 9.0568e-06, No Iterations 25
DICPCG:  Solving for p, Initial residual = 0.000503631, Final residual = 2.3532e-05, No Iterations 82
time step continuity errors : sum local = 2.83567e-09, global = -6.56386e-20, cumulative = -1.40299e-19
DICPCG:  Solving for p, Initial residual = 0.000481325, Final residual = 8.79727e-07, No Iterations 200
time step continuity errors : sum local = 9.9515e-11, global = -2.64915e-20, cumulative = -1.6679e-19
ExecutionTime = 15.14 s  ClockTime = 15 s

Time = 0.061875

Courant Number mean: 0.0724056 max: 0.606545
smoothSolver:  Solving for Ux, Initial residual = 0.000198847, Final residual = 8.62369e-06, No Iterations 20
smoothSolver:  Solving for Uy, Initial residual = 0.000459017, Final residual = 8.78981e-06, No Iterations 25
DICPCG:  Solving for p, Initial residual = 0.000510396, Final residual = 2.35888e-05, No Iterations 159
time step continuity errors : sum local = 2.67194e-09, global = 1.1928e-20, cumulative = -1.54862e-19
DICPCG:  Solving for p, Initial residual = 0.000487618, Final residual = 8.56915e-07, No Iterations 200
time step continuity errors : sum local = 9.69431e-11, global = -2.06956e-20, cumulative = -1.75558e-19
ExecutionTime = 15.28 s  ClockTime = 15 s

Time = 0.0625

Courant Number mean: 0.0724452 max: 0.606552
smoothSolver:  Solving for Ux, Initial residual = 0.0001931, Final residual = 9.79842e-06, No Iterations 19
smoothSolver:  Solving for Uy, Initial residual = 0.000447305, Final residual = 8.57221e-06, No Iterations 25
DICPCG:  Solving for p, Initial residual = 0.00049089, Final residual = 2.41307e-05, No Iterations 153
time step continuity errors : sum local = 2.72969e-09, global = 5.43417e-20, cumulative = -1.21216e-19
DICPCG:  Solving for p, Initial residual = 0.000471907, Final residual = 8.49103e-07, No Iterations 197
time step continuity errors : sum local = 9.60578e-11, global = 2.88701e-20, cumulative = -9.23461e-20
ExecutionTime = 15.44 s  ClockTime = 16 s

Time = 0.063125

Courant Number mean: 0.0724837 max: 0.60656
smoothSolver:  Solving for Ux, Initial residual = 0.000187894, Final residual = 9.54241e-06, No Iterations 19
smoothSolver:  Solving for Uy, Initial residual = 0.000434418, Final residual = 9.75892e-06, No Iterations 24
DICPCG:  Solving for p, Initial residual = 0.000468186, Final residual = 2.20294e-05, No Iterations 84
time step continuity errors : sum local = 2.65848e-09, global = -4.19992e-20, cumulative = -1.34345e-19
DICPCG:  Solving for p, Initial residual = 0.000448485, Final residual = 9.39599e-07, No Iterations 184
time step continuity errors : sum local = 1.06465e-10, global = -7.07275e-21, cumulative = -1.41418e-19
ExecutionTime = 15.55 s  ClockTime = 16 s

Time = 0.06375

Courant Number mean: 0.072521 max: 0.606566
smoothSolver:  Solving for Ux, Initial residual = 0.000181683, Final residual = 9.22403e-06, No Iterations 19
smoothSolver:  Solving for Uy, Initial residual = 0.000424355, Final residual = 9.521e-06, No Iterations 24
DICPCG:  Solving for p, Initial residual = 0.000483801, Final residual = 2.40281e-05, No Iterations 150
time step continuity errors : sum local = 2.72717e-09, global = -6.77942e-21, cumulative = -1.48197e-19
DICPCG:  Solving for p, Initial residual = 0.000466072, Final residual = 9.77583e-07, No Iterations 196
time step continuity errors : sum local = 1.10794e-10, global = 5.1094e-20, cumulative = -9.71035e-20
ExecutionTime = 15.69 s  ClockTime = 16 s

Time = 0.064375

Courant Number mean: 0.0725572 max: 0.606573
smoothSolver:  Solving for Ux, Initial residual = 0.000177506, Final residual = 9.01182e-06, No Iterations 19
smoothSolver:  Solving for Uy, Initial residual = 0.000412214, Final residual = 9.24613e-06, No Iterations 24
DICPCG:  Solving for p, Initial residual = 0.000470924, Final residual = 2.3212e-05, No Iterations 86
time step continuity errors : sum local = 2.81799e-09, global = -4.28076e-20, cumulative = -1.39911e-19
DICPCG:  Solving for p, Initial residual = 0.000453161, Final residual = 9.5051e-07, No Iterations 198
time step continuity errors : sum local = 1.07823e-10, global = -8.89272e-21, cumulative = -1.48804e-19
ExecutionTime = 15.81 s  ClockTime = 16 s

Time = 0.065

Courant Number mean: 0.0725925 max: 0.60658
smoothSolver:  Solving for Ux, Initial residual = 0.000171738, Final residual = 8.71709e-06, No Iterations 19
smoothSolver:  Solving for Uy, Initial residual = 0.000402673, Final residual = 9.02711e-06, No Iterations 24
DICPCG:  Solving for p, Initial residual = 0.000476673, Final residual = 2.31739e-05, No Iterations 157
time step continuity errors : sum local = 2.62702e-09, global = -5.93982e-20, cumulative = -2.08202e-19
DICPCG:  Solving for p, Initial residual = 0.000457685, Final residual = 9.12928e-07, No Iterations 194
time step continuity errors : sum local = 1.03258e-10, global = 6.25185e-20, cumulative = -1.45683e-19
ExecutionTime = 15.95 s  ClockTime = 16 s

Time = 0.065625

Courant Number mean: 0.0726268 max: 0.606586
smoothSolver:  Solving for Ux, Initial residual = 0.000167967, Final residual = 9.9763e-06, No Iterations 18
smoothSolver:  Solving for Uy, Initial residual = 0.000390103, Final residual = 8.7459e-06, No Iterations 24
DICPCG:  Solving for p, Initial residual = 0.000480682, Final residual = 2.09919e-05, No Iterations 93
time step continuity errors : sum local = 2.6722e-09, global = -6.27076e-20, cumulative = -2.08391e-19
DICPCG:  Solving for p, Initial residual = 0.000463926, Final residual = 9.75644e-07, No Iterations 184
time step continuity errors : sum local = 1.10575e-10, global = -8.3311e-20, cumulative = -2.91702e-19
ExecutionTime = 16.07 s  ClockTime = 16 s

Time = 0.06625

Courant Number mean: 0.07266 max: 0.606592
smoothSolver:  Solving for Ux, Initial residual = 0.000162554, Final residual = 9.64224e-06, No Iterations 18
smoothSolver:  Solving for Uy, Initial residual = 0.000383466, Final residual = 8.58628e-06, No Iterations 24
DICPCG:  Solving for p, Initial residual = 0.000529869, Final residual = 2.63793e-05, No Iterations 159
time step continuity errors : sum local = 2.99544e-09, global = -2.49475e-20, cumulative = -3.1665e-19
DICPCG:  Solving for p, Initial residual = 0.000510793, Final residual = 9.61081e-07, No Iterations 198
time step continuity errors : sum local = 1.08796e-10, global = 6.64836e-20, cumulative = -2.50166e-19
ExecutionTime = 16.22 s  ClockTime = 16 s

Time = 0.066875

Courant Number mean: 0.0726924 max: 0.606598
smoothSolver:  Solving for Ux, Initial residual = 0.000159568, Final residual = 9.46647e-06, No Iterations 18
smoothSolver:  Solving for Uy, Initial residual = 0.000369992, Final residual = 9.69325e-06, No Iterations 23
DICPCG:  Solving for p, Initial residual = 0.000458215, Final residual = 2.03553e-05, No Iterations 158
time step continuity errors : sum local = 2.31195e-09, global = 5.97011e-20, cumulative = -1.90465e-19
DICPCG:  Solving for p, Initial residual = 0.000439021, Final residual = 9.76998e-07, No Iterations 198
time step continuity errors : sum local = 1.10482e-10, global = -4.74822e-20, cumulative = -2.37947e-19
ExecutionTime = 16.36 s  ClockTime = 16 s

Time = 0.0675

Courant Number mean: 0.0727238 max: 0.606603
smoothSolver:  Solving for Ux, Initial residual = 0.000154357, Final residual = 9.18334e-06, No Iterations 18
smoothSolver:  Solving for Uy, Initial residual = 0.000359714, Final residual = 9.45469e-06, No Iterations 23
DICPCG:  Solving for p, Initial residual = 0.000406169, Final residual = 1.85253e-05, No Iterations 161
time step continuity errors : sum local = 2.10773e-09, global = 9.6039e-21, cumulative = -2.28343e-19
DICPCG:  Solving for p, Initial residual = 0.000390823, Final residual = 9.2743e-07, No Iterations 194
[...]
DICPCG:  Solving for p, Initial residual = 4.16423e-07, Final residual = 4.16423e-07, No Iterations 0
time step continuity errors : sum local = 4.87113e-11, global = -2.27636e-20, cumulative = -3.87742e-18
ExecutionTime = 87.9 s  ClockTime = 91 s

Time = 2.98375

Courant Number mean: 0.0739172 max: 0.606774
smoothSolver:  Solving for Ux, Initial residual = 4.10906e-09, Final residual = 4.10906e-09, No Iterations 0
smoothSolver:  Solving for Uy, Initial residual = 8.81268e-09, Final residual = 8.81268e-09, No Iterations 0
DICPCG:  Solving for p, Initial residual = 7.29684e-07, Final residual = 7.29684e-07, No Iterations 0
time step continuity errors : sum local = 8.4144e-11, global = 6.30418e-21, cumulative = -3.87112e-18
DICPCG:  Solving for p, Initial residual = 9.28087e-07, Final residual = 9.28087e-07, No Iterations 0
time step continuity errors : sum local = 1.06585e-10, global = -1.2634e-19, cumulative = -3.99746e-18
ExecutionTime = 87.91 s  ClockTime = 91 s

Time = 2.98437

Courant Number mean: 0.0739172 max: 0.606774
smoothSolver:  Solving for Ux, Initial residual = 2.13405e-09, Final residual = 2.13405e-09, No Iterations 0
smoothSolver:  Solving for Uy, Initial residual = 4.80602e-09, Final residual = 4.80602e-09, No Iterations 0
DICPCG:  Solving for p, Initial residual = 1.07619e-06, Final residual = 2.24937e-08, No Iterations 1
time step continuity errors : sum local = 4.15423e-12, global = -3.78477e-20, cumulative = -4.03531e-18
DICPCG:  Solving for p, Initial residual = 4.87492e-07, Final residual = 4.87492e-07, No Iterations 0
time step continuity errors : sum local = 5.67497e-11, global = -3.66001e-20, cumulative = -4.07191e-18
ExecutionTime = 87.92 s  ClockTime = 91 s

Time = 2.985

Courant Number mean: 0.0739172 max: 0.606774
smoothSolver:  Solving for Ux, Initial residual = 4.77828e-09, Final residual = 4.77828e-09, No Iterations 0
smoothSolver:  Solving for Uy, Initial residual = 1.01821e-08, Final residual = 1.01821e-08, No Iterations 0
DICPCG:  Solving for p, Initial residual = 8.54186e-07, Final residual = 8.54186e-07, No Iterations 0
time step continuity errors : sum local = 9.82262e-11, global = 8.22152e-21, cumulative = -4.06369e-18
DICPCG:  Solving for p, Initial residual = 1.0871e-06, Final residual = 2.26527e-08, No Iterations 1
time step continuity errors : sum local = 4.17213e-12, global = 8.02203e-20, cumulative = -3.98347e-18
ExecutionTime = 87.93 s  ClockTime = 91 s

Time = 2.98562

Courant Number mean: 0.0739172 max: 0.606774
smoothSolver:  Solving for Ux, Initial residual = 5.85944e-09, Final residual = 5.85944e-09, No Iterations 0
smoothSolver:  Solving for Uy, Initial residual = 1.24234e-08, Final residual = 1.24234e-08, No Iterations 0
DICPCG:  Solving for p, Initial residual = 4.57183e-07, Final residual = 4.57183e-07, No Iterations 0
time step continuity errors : sum local = 5.33215e-11, global = -1.17122e-20, cumulative = -3.99518e-18
DICPCG:  Solving for p, Initial residual = 7.45405e-07, Final residual = 7.45405e-07, No Iterations 0
time step continuity errors : sum local = 8.5922e-11, global = 4.7269e-20, cumulative = -3.94791e-18
ExecutionTime = 87.94 s  ClockTime = 91 s

Time = 2.98625

Courant Number mean: 0.0739172 max: 0.606774
smoothSolver:  Solving for Ux, Initial residual = 2.96002e-09, Final residual = 2.96002e-09, No Iterations 0
smoothSolver:  Solving for Uy, Initial residual = 6.46584e-09, Final residual = 6.46584e-09, No Iterations 0
DICPCG:  Solving for p, Initial residual = 9.60465e-07, Final residual = 9.60465e-07, No Iterations 0
time step continuity errors : sum local = 1.10247e-10, global = -2.84161e-20, cumulative = -3.97633e-18
DICPCG:  Solving for p, Initial residual = 1.0995e-06, Final residual = 2.28915e-08, No Iterations 1
time step continuity errors : sum local = 4.19904e-12, global = -3.95223e-20, cumulative = -4.01585e-18
ExecutionTime = 87.95 s  ClockTime = 91 s

Time = 2.98687

Courant Number mean: 0.0739172 max: 0.606774
smoothSolver:  Solving for Ux, Initial residual = 6.83309e-09, Final residual = 6.83309e-09, No Iterations 0
smoothSolver:  Solving for Uy, Initial residual = 1.44424e-08, Final residual = 1.44424e-08, No Iterations 0
DICPCG:  Solving for p, Initial residual = 5.34419e-07, Final residual = 5.34419e-07, No Iterations 0
time step continuity errors : sum local = 6.20574e-11, global = 4.15829e-21, cumulative = -4.01169e-18
DICPCG:  Solving for p, Initial residual = 8.72727e-07, Final residual = 8.72727e-07, No Iterations 0
time step continuity errors : sum local = 1.00323e-10, global = -5.69876e-20, cumulative = -4.06868e-18
ExecutionTime = 87.96 s  ClockTime = 91 s

Time = 2.9875

Courant Number mean: 0.0739172 max: 0.606774
smoothSolver:  Solving for Ux, Initial residual = 3.42656e-09, Final residual = 3.42656e-09, No Iterations 0
smoothSolver:  Solving for Uy, Initial residual = 7.4073e-09, Final residual = 7.4073e-09, No Iterations 0
DICPCG:  Solving for p, Initial residual = 1.12514e-06, Final residual = 2.32451e-08, No Iterations 1
time step continuity errors : sum local = 4.23896e-12, global = 1.61009e-20, cumulative = -4.05258e-18
DICPCG:  Solving for p, Initial residual = 4.46727e-07, Final residual = 4.46727e-07, No Iterations 0
time step continuity errors : sum local = 5.21386e-11, global = 2.51869e-20, cumulative = -4.02739e-18
ExecutionTime = 87.97 s  ClockTime = 91 s

Time = 2.98812

Courant Number mean: 0.0739172 max: 0.606774
smoothSolver:  Solving for Ux, Initial residual = 4.38784e-09, Final residual = 4.38784e-09, No Iterations 0
smoothSolver:  Solving for Uy, Initial residual = 9.38e-09, Final residual = 9.38e-09, No Iterations 0
DICPCG:  Solving for p, Initial residual = 7.8291e-07, Final residual = 7.8291e-07, No Iterations 0
time step continuity errors : sum local = 9.01639e-11, global = 3.44699e-20, cumulative = -3.99292e-18
DICPCG:  Solving for p, Initial residual = 9.95887e-07, Final residual = 9.95887e-07, No Iterations 0
time step continuity errors : sum local = 1.14254e-10, global = -6.46822e-20, cumulative = -4.0576e-18
ExecutionTime = 87.98 s  ClockTime = 91 s

Time = 2.98875

Courant Number mean: 0.0739172 max: 0.606774
smoothSolver:  Solving for Ux, Initial residual = 2.26432e-09, Final residual = 2.26432e-09, No Iterations 0
smoothSolver:  Solving for Uy, Initial residual = 5.05867e-09, Final residual = 5.05867e-09, No Iterations 0
DICPCG:  Solving for p, Initial residual = 1.15489e-06, Final residual = 2.3717e-08, No Iterations 1
time step continuity errors : sum local = 4.29225e-12, global = -2.33176e-20, cumulative = -4.08092e-18
DICPCG:  Solving for p, Initial residual = 5.23141e-07, Final residual = 5.23141e-07, No Iterations 0
time step continuity errors : sum local = 6.07816e-11, global = 1.1674e-19, cumulative = -3.96418e-18
ExecutionTime = 87.99 s  ClockTime = 91 s

Time = 2.98937

Courant Number mean: 0.0739172 max: 0.606774
smoothSolver:  Solving for Ux, Initial residual = 5.10824e-09, Final residual = 5.10824e-09, No Iterations 0
smoothSolver:  Solving for Uy, Initial residual = 1.0858e-08, Final residual = 1.0858e-08, No Iterations 0
DICPCG:  Solving for p, Initial residual = 9.16773e-07, Final residual = 9.16773e-07, No Iterations 0
time step continuity errors : sum local = 1.05305e-10, global = 3.67646e-20, cumulative = -3.92741e-18
DICPCG:  Solving for p, Initial residual = 1.16685e-06, Final residual = 2.38967e-08, No Iterations 1
time step continuity errors : sum local = 4.31249e-12, global = -6.7971e-21, cumulative = -3.93421e-18
ExecutionTime = 88 s  ClockTime = 91 s

Time = 2.99

Courant Number mean: 0.0739172 max: 0.606774
smoothSolver:  Solving for Ux, Initial residual = 6.27038e-09, Final residual = 6.27038e-09, No Iterations 0
smoothSolver:  Solving for Uy, Initial residual = 1.32724e-08, Final residual = 1.32724e-08, No Iterations 0
DICPCG:  Solving for p, Initial residual = 4.90694e-07, Final residual = 4.90694e-07, No Iterations 0
time step continuity errors : sum local = 5.71115e-11, global = 2.21254e-20, cumulative = -3.91209e-18
DICPCG:  Solving for p, Initial residual = 8.00168e-07, Final residual = 8.00168e-07, No Iterations 0
time step continuity errors : sum local = 9.21158e-11, global = 2.24137e-20, cumulative = -3.88967e-18
ExecutionTime = 88.01 s  ClockTime = 91 s

Time = 2.99062

Courant Number mean: 0.0739172 max: 0.606774
smoothSolver:  Solving for Ux, Initial residual = 3.1546e-09, Final residual = 3.1546e-09, No Iterations 0
smoothSolver:  Solving for Uy, Initial residual = 6.85391e-09, Final residual = 6.85391e-09, No Iterations 0
DICPCG:  Solving for p, Initial residual = 1.03113e-06, Final residual = 2.22041e-08, No Iterations 1
time step continuity errors : sum local = 4.12096e-12, global = -7.58582e-21, cumulative = -3.89726e-18
DICPCG:  Solving for p, Initial residual = 4.09967e-07, Final residual = 4.09967e-07, No Iterations 0
time step continuity errors : sum local = 4.79804e-11, global = -5.13388e-20, cumulative = -3.9486e-18
ExecutionTime = 88.02 s  ClockTime = 91 s

Time = 2.99125

Courant Number mean: 0.0739172 max: 0.606774
smoothSolver:  Solving for Ux, Initial residual = 4.04253e-09, Final residual = 4.04253e-09, No Iterations 0
smoothSolver:  Solving for Uy, Initial residual = 8.66095e-09, Final residual = 8.66095e-09, No Iterations 0
DICPCG:  Solving for p, Initial residual = 7.17985e-07, Final residual = 7.17985e-07, No Iterations 0
time step continuity errors : sum local = 8.28201e-11, global = 1.23829e-20, cumulative = -3.93621e-18
DICPCG:  Solving for p, Initial residual = 9.13077e-07, Final residual = 9.13077e-07, No Iterations 0
time step continuity errors : sum local = 1.04887e-10, global = -9.46772e-21, cumulative = -3.94568e-18
ExecutionTime = 88.02 s  ClockTime = 91 s

Time = 2.99187

Courant Number mean: 0.0739172 max: 0.606774
smoothSolver:  Solving for Ux, Initial residual = 2.09753e-09, Final residual = 2.09753e-09, No Iterations 0
smoothSolver:  Solving for Uy, Initial residual = 4.71802e-09, Final residual = 4.71802e-09, No Iterations 0
DICPCG:  Solving for p, Initial residual = 1.05869e-06, Final residual = 2.2574e-08, No Iterations 1
time step continuity errors : sum local = 4.16271e-12, global = 1.25504e-21, cumulative = -3.94443e-18
DICPCG:  Solving for p, Initial residual = 4.79625e-07, Final residual = 4.79625e-07, No Iterations 0
time step continuity errors : sum local = 5.58593e-11, global = -1.16109e-20, cumulative = -3.95604e-18
ExecutionTime = 88.03 s  ClockTime = 91 s

Time = 2.9925

Courant Number mean: 0.0739172 max: 0.606774
smoothSolver:  Solving for Ux, Initial residual = 4.69391e-09, Final residual = 4.69391e-09, No Iterations 0
smoothSolver:  Solving for Uy, Initial residual = 1.00025e-08, Final residual = 1.00025e-08, No Iterations 0
DICPCG:  Solving for p, Initial residual = 8.40009e-07, Final residual = 8.40009e-07, No Iterations 0
time step continuity errors : sum local = 9.6622e-11, global = 1.17569e-20, cumulative = -3.94428e-18
DICPCG:  Solving for p, Initial residual = 1.06894e-06, Final residual = 2.27653e-08, No Iterations 1
time step continuity errors : sum local = 4.18427e-12, global = -6.55416e-20, cumulative = -4.00982e-18
ExecutionTime = 88.04 s  ClockTime = 91 s

Time = 2.99312

Courant Number mean: 0.0739172 max: 0.606774
smoothSolver:  Solving for Ux, Initial residual = 5.76267e-09, Final residual = 5.76267e-09, No Iterations 0
smoothSolver:  Solving for Uy, Initial residual = 1.22142e-08, Final residual = 1.22142e-08, No Iterations 0
DICPCG:  Solving for p, Initial residual = 4.49924e-07, Final residual = 4.49924e-07, No Iterations 0
time step continuity errors : sum local = 5.24998e-11, global = -7.36304e-20, cumulative = -4.08345e-18
DICPCG:  Solving for p, Initial residual = 7.3328e-07, Final residual = 7.3328e-07, No Iterations 0
time step continuity errors : sum local = 8.45499e-11, global = -6.52171e-20, cumulative = -4.14867e-18
ExecutionTime = 88.05 s  ClockTime = 91 s

Time = 2.99375

Courant Number mean: 0.0739172 max: 0.606774
smoothSolver:  Solving for Ux, Initial residual = 2.91045e-09, Final residual = 2.91045e-09, No Iterations 0
smoothSolver:  Solving for Uy, Initial residual = 6.34994e-09, Final residual = 6.34994e-09, No Iterations 0
DICPCG:  Solving for p, Initial residual = 9.44717e-07, Final residual = 9.44717e-07, No Iterations 0
time step continuity errors : sum local = 1.08465e-10, global = -6.8914e-20, cumulative = -4.21758e-18
DICPCG:  Solving for p, Initial residual = 1.08139e-06, Final residual = 2.29594e-08, No Iterations 1
time step continuity errors : sum local = 4.20615e-12, global = -1.99487e-20, cumulative = -4.23753e-18
ExecutionTime = 88.06 s  ClockTime = 91 s

Time = 2.99437

Courant Number mean: 0.0739172 max: 0.606774
smoothSolver:  Solving for Ux, Initial residual = 6.71403e-09, Final residual = 6.71403e-09, No Iterations 0
smoothSolver:  Solving for Uy, Initial residual = 1.41879e-08, Final residual = 1.41879e-08, No Iterations 0
DICPCG:  Solving for p, Initial residual = 5.25652e-07, Final residual = 5.25652e-07, No Iterations 0
time step continuity errors : sum local = 6.10652e-11, global = -7.29543e-20, cumulative = -4.31049e-18
DICPCG:  Solving for p, Initial residual = 8.58074e-07, Final residual = 8.58074e-07, No Iterations 0
time step continuity errors : sum local = 9.86652e-11, global = -3.90544e-20, cumulative = -4.34954e-18
ExecutionTime = 88.07 s  ClockTime = 91 s

Time = 2.995

Courant Number mean: 0.0739172 max: 0.606774
smoothSolver:  Solving for Ux, Initial residual = 3.36511e-09, Final residual = 3.36511e-09, No Iterations 0
smoothSolver:  Solving for Uy, Initial residual = 7.27461e-09, Final residual = 7.27461e-09, No Iterations 0
DICPCG:  Solving for p, Initial residual = 1.10615e-06, Final residual = 2.33439e-08, No Iterations 1
time step continuity errors : sum local = 4.24957e-12, global = -4.22272e-20, cumulative = -4.39177e-18
DICPCG:  Solving for p, Initial residual = 4.39565e-07, Final residual = 4.39565e-07, No Iterations 0
time step continuity errors : sum local = 5.13279e-11, global = 2.523e-21, cumulative = -4.38925e-18
ExecutionTime = 88.08 s  ClockTime = 91 s

Time = 2.99562

Courant Number mean: 0.0739172 max: 0.606774
smoothSolver:  Solving for Ux, Initial residual = 4.31509e-09, Final residual = 4.31509e-09, No Iterations 0
smoothSolver:  Solving for Uy, Initial residual = 9.21651e-09, Final residual = 9.21651e-09, No Iterations 0
DICPCG:  Solving for p, Initial residual = 7.70027e-07, Final residual = 7.70027e-07, No Iterations 0
time step continuity errors : sum local = 8.87062e-11, global = 1.14033e-20, cumulative = -4.37784e-18
DICPCG:  Solving for p, Initial residual = 9.79383e-07, Final residual = 9.79383e-07, No Iterations 0
time step continuity errors : sum local = 1.12386e-10, global = -3.09273e-20, cumulative = -4.40877e-18
ExecutionTime = 88.09 s  ClockTime = 91 s

Time = 2.99625

Courant Number mean: 0.0739172 max: 0.606774
smoothSolver:  Solving for Ux, Initial residual = 2.22532e-09, Final residual = 2.22532e-09, No Iterations 0
smoothSolver:  Solving for Uy, Initial residual = 4.96604e-09, Final residual = 4.96604e-09, No Iterations 0
DICPCG:  Solving for p, Initial residual = 1.13568e-06, Final residual = 2.37664e-08, No Iterations 1
time step continuity errors : sum local = 4.29728e-12, global = 4.79053e-21, cumulative = -4.40398e-18
DICPCG:  Solving for p, Initial residual = 5.14471e-07, Final residual = 5.14471e-07, No Iterations 0
time step continuity errors : sum local = 5.98004e-11, global = 5.68081e-20, cumulative = -4.34717e-18
ExecutionTime = 88.1 s  ClockTime = 91 s

Time = 2.99687

Courant Number mean: 0.0739172 max: 0.606774
smoothSolver:  Solving for Ux, Initial residual = 5.01683e-09, Final residual = 5.01683e-09, No Iterations 0
smoothSolver:  Solving for Uy, Initial residual = 1.0665e-08, Final residual = 1.0665e-08, No Iterations 0
DICPCG:  Solving for p, Initial residual = 9.01225e-07, Final residual = 9.01225e-07, No Iterations 0
time step continuity errors : sum local = 1.03546e-10, global = -6.07178e-20, cumulative = -4.40789e-18
DICPCG:  Solving for p, Initial residual = 1.14698e-06, Final residual = 2.39758e-08, No Iterations 1
time step continuity errors : sum local = 4.32089e-12, global = 3.46386e-20, cumulative = -4.37325e-18
ExecutionTime = 88.11 s  ClockTime = 91 s

Time = 2.9975

Courant Number mean: 0.0739172 max: 0.606774
smoothSolver:  Solving for Ux, Initial residual = 6.16481e-09, Final residual = 6.16481e-09, No Iterations 0
smoothSolver:  Solving for Uy, Initial residual = 1.30452e-08, Final residual = 1.30452e-08, No Iterations 0
DICPCG:  Solving for p, Initial residual = 4.82705e-07, Final residual = 4.82705e-07, No Iterations 0
time step continuity errors : sum local = 5.62073e-11, global = 5.56205e-20, cumulative = -4.31763e-18
DICPCG:  Solving for p, Initial residual = 7.86876e-07, Final residual = 7.86876e-07, No Iterations 0
time step continuity errors : sum local = 9.06118e-11, global = 4.67597e-20, cumulative = -4.27087e-18
ExecutionTime = 88.12 s  ClockTime = 91 s

Time = 2.99812

Courant Number mean: 0.0739172 max: 0.606774
smoothSolver:  Solving for Ux, Initial residual = 3.10104e-09, Final residual = 3.10104e-09, No Iterations 0
smoothSolver:  Solving for Uy, Initial residual = 6.72967e-09, Final residual = 6.72967e-09, No Iterations 0
DICPCG:  Solving for p, Initial residual = 1.01388e-06, Final residual = 2.22733e-08, No Iterations 1
time step continuity errors : sum local = 4.12825e-12, global = -1.43472e-19, cumulative = -4.41434e-18
DICPCG:  Solving for p, Initial residual = 4.03237e-07, Final residual = 4.03237e-07, No Iterations 0
time step continuity errors : sum local = 4.72186e-11, global = 4.16481e-20, cumulative = -4.37269e-18
ExecutionTime = 88.13 s  ClockTime = 91 s

Time = 2.99875

Courant Number mean: 0.0739172 max: 0.606774
smoothSolver:  Solving for Ux, Initial residual = 3.96999e-09, Final residual = 3.96999e-09, No Iterations 0
smoothSolver:  Solving for Uy, Initial residual = 8.50402e-09, Final residual = 8.50402e-09, No Iterations 0
DICPCG:  Solving for p, Initial residual = 7.05841e-07, Final residual = 7.05841e-07, No Iterations 0
time step continuity errors : sum local = 8.14459e-11, global = 2.37867e-20, cumulative = -4.34891e-18
DICPCG:  Solving for p, Initial residual = 8.97487e-07, Final residual = 8.97487e-07, No Iterations 0
time step continuity errors : sum local = 1.03123e-10, global = -3.83625e-20, cumulative = -4.38727e-18
ExecutionTime = 88.14 s  ClockTime = 91 s

Time = 2.99937

Courant Number mean: 0.0739172 max: 0.606774
smoothSolver:  Solving for Ux, Initial residual = 2.0599e-09, Final residual = 2.0599e-09, No Iterations 0
smoothSolver:  Solving for Uy, Initial residual = 4.62853e-09, Final residual = 4.62853e-09, No Iterations 0
DICPCG:  Solving for p, Initial residual = 1.04055e-06, Final residual = 2.26628e-08, No Iterations 1
time step continuity errors : sum local = 4.17223e-12, global = -2.38497e-21, cumulative = -4.38966e-18
DICPCG:  Solving for p, Initial residual = 4.7176e-07, Final residual = 4.7176e-07, No Iterations 0
time step continuity errors : sum local = 5.49692e-11, global = 3.89919e-20, cumulative = -4.35066e-18
ExecutionTime = 88.15 s  ClockTime = 92 s

Time = 3

Courant Number mean: 0.0739172 max: 0.606774
smoothSolver:  Solving for Ux, Initial residual = 4.6147e-09, Final residual = 4.6147e-09, No Iterations 0
smoothSolver:  Solving for Uy, Initial residual = 9.82641e-09, Final residual = 9.82641e-09, No Iterations 0
DICPCG:  Solving for p, Initial residual = 8.25928e-07, Final residual = 8.25928e-07, No Iterations 0
time step continuity errors : sum local = 9.50288e-11, global = 2.34075e-20, cumulative = -4.32726e-18
DICPCG:  Solving for p, Initial residual = 1.05091e-06, Final residual = 2.28144e-08, No Iterations 1
time step continuity errors : sum local = 4.18932e-12, global = 4.29111e-20, cumulative = -4.28434e-18
ExecutionTime = 88.2 s  ClockTime = 92 s

End

