/*---------------------------------------------------------------------------*\
  =========                 |
  \\      /  F ield         | OpenFOAM: The Open Source CFD Toolbox
   \\    /   O peration     | Website:  https://openfoam.org
    \\  /    A nd           | Version:  7
     \\/     M anipulation  |
\*---------------------------------------------------------------------------*/
Build  : 7
Exec   : icoFoam
Date   : Feb 11 2025
Time   : 00:37:54
Host   : "c211-007.frontera.tacc.utexas.edu"
PID    : 273778
I/O    : uncollated
Case   : /work2/10249/ctshep3141/frontera/coe347/COE-347-Open-Foam/of-project-1/extracred/Re-400-AR-half
nProcs : 1
sigFpe : Enabling floating point exception trapping (FOAM_SIGFPE).
fileModificationChecking : Monitoring run-time modified files using timeStampMaster (fileModificationSkew 10)
allowSystemOperations : Allowing user-supplied system call operations

// * * * * * * * * * * * * * * * * * * * * * * * * * * * * * * * * * * * * * //
Create time

Create mesh for time = 0

Reading transportProperties

Reading field p

Reading field U

Reading/calculating face flux field phi


Starting time loop

Time = 0.000625

Courant Number mean: 0 max: 0
smoothSolver:  Solving for Ux, Initial residual = 1, Final residual = 3.26093e-06, No Iterations 4
smoothSolver:  Solving for Uy, Initial residual = 0, Final residual = 0, No Iterations 0
DICPCG:  Solving for p, Initial residual = 1, Final residual = 0.0471737, No Iterations 91
time step continuity errors : sum local = 7.32002e-07, global = 1.58972e-21, cumulative = 1.58972e-21
DICPCG:  Solving for p, Initial residual = 0.234657, Final residual = 9.89854e-07, No Iterations 247
time step continuity errors : sum local = 2.91258e-11, global = -2.97591e-22, cumulative = 1.29213e-21
ExecutionTime = 0.24 s  ClockTime = 0 s

Time = 0.00125

Courant Number mean: 0.0019124 max: 0.132219
smoothSolver:  Solving for Ux, Initial residual = 0.29438, Final residual = 1.72531e-06, No Iterations 4
smoothSolver:  Solving for Uy, Initial residual = 0.328258, Final residual = 3.05372e-06, No Iterations 4
DICPCG:  Solving for p, Initial residual = 0.154261, Final residual = 0.00732423, No Iterations 81
time step continuity errors : sum local = 2.26908e-07, global = -7.01078e-21, cumulative = -5.71865e-21
DICPCG:  Solving for p, Initial residual = 0.0428879, Final residual = 9.62953e-07, No Iterations 236
time step continuity errors : sum local = 3.2184e-11, global = 3.36007e-21, cumulative = -2.35858e-21
ExecutionTime = 0.35 s  ClockTime = 0 s

Time = 0.001875

Courant Number mean: 0.00342666 max: 0.225041
smoothSolver:  Solving for Ux, Initial residual = 0.158817, Final residual = 9.58429e-07, No Iterations 4
smoothSolver:  Solving for Uy, Initial residual = 0.179346, Final residual = 1.68129e-06, No Iterations 4
DICPCG:  Solving for p, Initial residual = 0.0988554, Final residual = 0.00465322, No Iterations 80
time step continuity errors : sum local = 1.66156e-07, global = -6.1694e-21, cumulative = -8.52799e-21
DICPCG:  Solving for p, Initial residual = 0.0295352, Final residual = 7.74737e-07, No Iterations 235
time step continuity errors : sum local = 2.9304e-11, global = 1.72269e-20, cumulative = 8.6989e-21
ExecutionTime = 0.47 s  ClockTime = 0 s

Time = 0.0025

Courant Number mean: 0.00466932 max: 0.29122
smoothSolver:  Solving for Ux, Initial residual = 0.103434, Final residual = 6.40034e-07, No Iterations 4
smoothSolver:  Solving for Uy, Initial residual = 0.11687, Final residual = 1.10366e-06, No Iterations 4
DICPCG:  Solving for p, Initial residual = 0.0753681, Final residual = 0.00366881, No Iterations 77
time step continuity errors : sum local = 1.44993e-07, global = -1.17812e-20, cumulative = -3.08232e-21
DICPCG:  Solving for p, Initial residual = 0.0223435, Final residual = 8.93975e-07, No Iterations 233
time step continuity errors : sum local = 3.71533e-11, global = 8.19111e-21, cumulative = 5.10879e-21
ExecutionTime = 0.58 s  ClockTime = 0 s

Time = 0.003125

Courant Number mean: 0.00571559 max: 0.33926
smoothSolver:  Solving for Ux, Initial residual = 0.0741678, Final residual = 8.82302e-06, No Iterations 3
smoothSolver:  Solving for Uy, Initial residual = 0.0838882, Final residual = 7.97724e-07, No Iterations 4
DICPCG:  Solving for p, Initial residual = 0.0593671, Final residual = 0.00286825, No Iterations 75
time step continuity errors : sum local = 1.23982e-07, global = 8.52705e-21, cumulative = 1.36358e-20
DICPCG:  Solving for p, Initial residual = 0.0175773, Final residual = 9.74024e-07, No Iterations 230
time step continuity errors : sum local = 4.36561e-11, global = 5.40144e-21, cumulative = 1.90373e-20
ExecutionTime = 0.69 s  ClockTime = 0 s

Time = 0.00375

Courant Number mean: 0.00661445 max: 0.374816
smoothSolver:  Solving for Ux, Initial residual = 0.0568103, Final residual = 6.91049e-06, No Iterations 3
smoothSolver:  Solving for Uy, Initial residual = 0.064141, Final residual = 6.13668e-07, No Iterations 4
DICPCG:  Solving for p, Initial residual = 0.0476783, Final residual = 0.00229492, No Iterations 73
time step continuity errors : sum local = 1.061e-07, global = -6.10481e-21, cumulative = 1.29325e-20
DICPCG:  Solving for p, Initial residual = 0.0139291, Final residual = 8.71469e-07, No Iterations 229
time step continuity errors : sum local = 4.15806e-11, global = -8.98138e-21, cumulative = 3.95109e-21
ExecutionTime = 0.79 s  ClockTime = 1 s

Time = 0.004375

Courant Number mean: 0.00739994 max: 0.40167
smoothSolver:  Solving for Ux, Initial residual = 0.045555, Final residual = 5.65204e-06, No Iterations 3
smoothSolver:  Solving for Uy, Initial residual = 0.0513252, Final residual = 8.83854e-06, No Iterations 3
DICPCG:  Solving for p, Initial residual = 0.0396364, Final residual = 0.00192505, No Iterations 71
time step continuity errors : sum local = 9.44371e-08, global = -1.11737e-20, cumulative = -7.22259e-21
DICPCG:  Solving for p, Initial residual = 0.0118708, Final residual = 9.97013e-07, No Iterations 227
time step continuity errors : sum local = 5.0193e-11, global = 1.90234e-21, cumulative = -5.32025e-21
ExecutionTime = 0.9 s  ClockTime = 1 s

Time = 0.005

Courant Number mean: 0.0081003 max: 0.422377
smoothSolver:  Solving for Ux, Initial residual = 0.0377768, Final residual = 4.77496e-06, No Iterations 3
smoothSolver:  Solving for Uy, Initial residual = 0.0424941, Final residual = 7.3466e-06, No Iterations 3
DICPCG:  Solving for p, Initial residual = 0.0305379, Final residual = 0.00146609, No Iterations 71
time step continuity errors : sum local = 7.53239e-08, global = 6.97443e-21, cumulative = 1.65417e-21
DICPCG:  Solving for p, Initial residual = 0.00972348, Final residual = 9.50012e-07, No Iterations 225
time step continuity errors : sum local = 4.97745e-11, global = 7.68646e-21, cumulative = 9.34064e-21
ExecutionTime = 1.01 s  ClockTime = 1 s

Time = 0.005625

Courant Number mean: 0.00873958 max: 0.43868
smoothSolver:  Solving for Ux, Initial residual = 0.0322081, Final residual = 4.13398e-06, No Iterations 3
smoothSolver:  Solving for Uy, Initial residual = 0.0361272, Final residual = 6.26549e-06, No Iterations 3
DICPCG:  Solving for p, Initial residual = 0.0256456, Final residual = 0.00123724, No Iterations 70
time step continuity errors : sum local = 6.58923e-08, global = -2.20932e-22, cumulative = 9.1197e-21
DICPCG:  Solving for p, Initial residual = 0.00816587, Final residual = 9.98934e-07, No Iterations 221
time step continuity errors : sum local = 5.40214e-11, global = -4.76634e-21, cumulative = 4.35337e-21
ExecutionTime = 1.11 s  ClockTime = 1 s

Time = 0.00625

Courant Number mean: 0.00932677 max: 0.451775
smoothSolver:  Solving for Ux, Initial residual = 0.0280217, Final residual = 3.64257e-06, No Iterations 3
smoothSolver:  Solving for Uy, Initial residual = 0.0313593, Final residual = 5.45225e-06, No Iterations 3
DICPCG:  Solving for p, Initial residual = 0.0229604, Final residual = 0.00113874, No Iterations 68
time step continuity errors : sum local = 6.25081e-08, global = 1.15738e-20, cumulative = 1.59271e-20
DICPCG:  Solving for p, Initial residual = 0.00729656, Final residual = 9.90576e-07, No Iterations 194
time step continuity errors : sum local = 5.52301e-11, global = -9.71008e-21, cumulative = 6.21705e-21
ExecutionTime = 1.2 s  ClockTime = 1 s

Time = 0.006875

Courant Number mean: 0.00987025 max: 0.462496
smoothSolver:  Solving for Ux, Initial residual = 0.0247688, Final residual = 3.25489e-06, No Iterations 3
smoothSolver:  Solving for Uy, Initial residual = 0.0276766, Final residual = 4.82128e-06, No Iterations 3
DICPCG:  Solving for p, Initial residual = 0.0198531, Final residual = 0.000985468, No Iterations 67
time step continuity errors : sum local = 5.5502e-08, global = -7.63337e-21, cumulative = -1.41632e-21
DICPCG:  Solving for p, Initial residual = 0.00653335, Final residual = 8.17732e-07, No Iterations 220
time step continuity errors : sum local = 4.65743e-11, global = 3.62797e-21, cumulative = 2.21166e-21
ExecutionTime = 1.3 s  ClockTime = 1 s

Time = 0.0075

Courant Number mean: 0.0103769 max: 0.471429
smoothSolver:  Solving for Ux, Initial residual = 0.0221698, Final residual = 2.94212e-06, No Iterations 3
smoothSolver:  Solving for Uy, Initial residual = 0.0247577, Final residual = 4.31874e-06, No Iterations 3
DICPCG:  Solving for p, Initial residual = 0.0179392, Final residual = 0.000891133, No Iterations 66
time step continuity errors : sum local = 5.12327e-08, global = 3.38555e-20, cumulative = 3.60671e-20
DICPCG:  Solving for p, Initial residual = 0.00593842, Final residual = 8.82971e-07, No Iterations 219
time step continuity errors : sum local = 5.1207e-11, global = 6.42922e-21, cumulative = 4.24963e-20
ExecutionTime = 1.41 s  ClockTime = 1 s

Time = 0.008125

Courant Number mean: 0.0108514 max: 0.478995
smoothSolver:  Solving for Ux, Initial residual = 0.0200768, Final residual = 2.68583e-06, No Iterations 3
smoothSolver:  Solving for Uy, Initial residual = 0.0223956, Final residual = 3.90991e-06, No Iterations 3
DICPCG:  Solving for p, Initial residual = 0.0160122, Final residual = 0.000756019, No Iterations 66
time step continuity errors : sum local = 4.4265e-08, global = -9.7531e-21, cumulative = 3.27432e-20
DICPCG:  Solving for p, Initial residual = 0.00542424, Final residual = 9.3438e-07, No Iterations 218
time step continuity errors : sum local = 5.5127e-11, global = 1.49384e-20, cumulative = 4.76817e-20
ExecutionTime = 1.51 s  ClockTime = 1 s

Time = 0.00875

Courant Number mean: 0.0112973 max: 0.485494
smoothSolver:  Solving for Ux, Initial residual = 0.0183604, Final residual = 2.47326e-06, No Iterations 3
smoothSolver:  Solving for Uy, Initial residual = 0.0204447, Final residual = 3.57124e-06, No Iterations 3
DICPCG:  Solving for p, Initial residual = 0.0147661, Final residual = 0.000710116, No Iterations 65
time step continuity errors : sum local = 4.22663e-08, global = 8.98731e-22, cumulative = 4.85804e-20
DICPCG:  Solving for p, Initial residual = 0.00499826, Final residual = 9.59642e-07, No Iterations 217
time step continuity errors : sum local = 5.75091e-11, global = -6.16785e-21, cumulative = 4.24126e-20
ExecutionTime = 1.61 s  ClockTime = 1 s

Time = 0.009375

Courant Number mean: 0.011721 max: 0.49115
smoothSolver:  Solving for Ux, Initial residual = 0.0169175, Final residual = 2.29309e-06, No Iterations 3
smoothSolver:  Solving for Uy, Initial residual = 0.0188073, Final residual = 3.2861e-06, No Iterations 3
DICPCG:  Solving for p, Initial residual = 0.0137379, Final residual = 0.00066638, No Iterations 64
time step continuity errors : sum local = 4.02348e-08, global = -1.01093e-20, cumulative = 3.23032e-20
DICPCG:  Solving for p, Initial residual = 0.00469098, Final residual = 9.17437e-07, No Iterations 216
time step continuity errors : sum local = 5.57146e-11, global = 1.74582e-20, cumulative = 4.97614e-20
ExecutionTime = 1.71 s  ClockTime = 2 s

Time = 0.01

Courant Number mean: 0.0121279 max: 0.496127
smoothSolver:  Solving for Ux, Initial residual = 0.015679, Final residual = 2.13737e-06, No Iterations 3
smoothSolver:  Solving for Uy, Initial residual = 0.0174141, Final residual = 3.04274e-06, No Iterations 3
DICPCG:  Solving for p, Initial residual = 0.0127915, Final residual = 0.000623162, No Iterations 63
time step continuity errors : sum local = 3.80979e-08, global = -1.94414e-20, cumulative = 3.032e-20
DICPCG:  Solving for p, Initial residual = 0.00440528, Final residual = 9.39548e-07, No Iterations 215
time step continuity errors : sum local = 5.77226e-11, global = 2.94238e-20, cumulative = 5.97438e-20
ExecutionTime = 1.81 s  ClockTime = 2 s

Time = 0.010625

Courant Number mean: 0.0125181 max: 0.500552
smoothSolver:  Solving for Ux, Initial residual = 0.0145993, Final residual = 2.0009e-06, No Iterations 3
smoothSolver:  Solving for Uy, Initial residual = 0.0162143, Final residual = 2.83264e-06, No Iterations 3
DICPCG:  Solving for p, Initial residual = 0.0120523, Final residual = 0.000590912, No Iterations 62
time step continuity errors : sum local = 3.65152e-08, global = -9.12263e-21, cumulative = 5.06212e-20
DICPCG:  Solving for p, Initial residual = 0.00417871, Final residual = 8.76063e-07, No Iterations 215
time step continuity errors : sum local = 5.43548e-11, global = 9.34953e-21, cumulative = 5.99707e-20
ExecutionTime = 1.91 s  ClockTime = 2 s

Time = 0.01125

Courant Number mean: 0.0128924 max: 0.504519
smoothSolver:  Solving for Ux, Initial residual = 0.0136578, Final residual = 1.88054e-06, No Iterations 3
smoothSolver:  Solving for Uy, Initial residual = 0.0151699, Final residual = 2.64943e-06, No Iterations 3
DICPCG:  Solving for p, Initial residual = 0.0114542, Final residual = 0.000563227, No Iterations 61
time step continuity errors : sum local = 3.50951e-08, global = -9.55606e-21, cumulative = 5.04147e-20
DICPCG:  Solving for p, Initial residual = 0.0039988, Final residual = 8.23598e-07, No Iterations 215
time step continuity errors : sum local = 5.14562e-11, global = 2.30269e-20, cumulative = 7.34415e-20
ExecutionTime = 2.01 s  ClockTime = 2 s

Time = 0.011875

Courant Number mean: 0.0132522 max: 0.508102
smoothSolver:  Solving for Ux, Initial residual = 0.0128387, Final residual = 1.77402e-06, No Iterations 3
smoothSolver:  Solving for Uy, Initial residual = 0.014252, Final residual = 2.48824e-06, No Iterations 3
DICPCG:  Solving for p, Initial residual = 0.0109405, Final residual = 0.000534981, No Iterations 60
time step continuity errors : sum local = 3.35945e-08, global = 6.18316e-21, cumulative = 7.96247e-20
DICPCG:  Solving for p, Initial residual = 0.00384179, Final residual = 9.64302e-07, No Iterations 214
time step continuity errors : sum local = 6.07704e-11, global = -2.09163e-21, cumulative = 7.75331e-20
ExecutionTime = 2.11 s  ClockTime = 2 s

Time = 0.0125

Courant Number mean: 0.0135986 max: 0.51136
smoothSolver:  Solving for Ux, Initial residual = 0.0121112, Final residual = 1.67996e-06, No Iterations 3
smoothSolver:  Solving for Uy, Initial residual = 0.0134402, Final residual = 2.34527e-06, No Iterations 3
DICPCG:  Solving for p, Initial residual = 0.0103756, Final residual = 0.00049172, No Iterations 60
time step continuity errors : sum local = 3.11134e-08, global = 3.55253e-20, cumulative = 1.13058e-19
DICPCG:  Solving for p, Initial residual = 0.00367817, Final residual = 9.13895e-07, No Iterations 214
time step continuity errors : sum local = 5.79882e-11, global = 1.3907e-20, cumulative = 1.26965e-19
ExecutionTime = 2.21 s  ClockTime = 2 s

Time = 0.013125

Courant Number mean: 0.0139324 max: 0.514342
smoothSolver:  Solving for Ux, Initial residual = 0.0114619, Final residual = 1.5959e-06, No Iterations 3
smoothSolver:  Solving for Uy, Initial residual = 0.0127161, Final residual = 2.21761e-06, No Iterations 3
DICPCG:  Solving for p, Initial residual = 0.00993665, Final residual = 0.000478359, No Iterations 59
time step continuity errors : sum local = 3.04679e-08, global = -7.93685e-21, cumulative = 1.19029e-19
DICPCG:  Solving for p, Initial residual = 0.00352779, Final residual = 8.78333e-07, No Iterations 214
time step continuity errors : sum local = 5.609e-11, global = -5.99292e-22, cumulative = 1.18429e-19
ExecutionTime = 2.31 s  ClockTime = 2 s

Time = 0.01375

Courant Number mean: 0.014254 max: 0.517082
smoothSolver:  Solving for Ux, Initial residual = 0.0108771, Final residual = 1.52e-06, No Iterations 3
smoothSolver:  Solving for Uy, Initial residual = 0.0120658, Final residual = 2.10287e-06, No Iterations 3
DICPCG:  Solving for p, Initial residual = 0.00954271, Final residual = 0.000476069, No Iterations 58
time step continuity errors : sum local = 3.05042e-08, global = 3.39132e-21, cumulative = 1.21821e-19
DICPCG:  Solving for p, Initial residual = 0.00341236, Final residual = 8.39961e-07, No Iterations 214
time step continuity errors : sum local = 5.3945e-11, global = -9.90108e-21, cumulative = 1.1192e-19
ExecutionTime = 2.4 s  ClockTime = 2 s

Time = 0.014375

Courant Number mean: 0.0145646 max: 0.519614
smoothSolver:  Solving for Ux, Initial residual = 0.0103474, Final residual = 1.45095e-06, No Iterations 3
smoothSolver:  Solving for Uy, Initial residual = 0.0114803, Final residual = 1.99935e-06, No Iterations 3
DICPCG:  Solving for p, Initial residual = 0.0091982, Final residual = 0.000442665, No Iterations 58
time step continuity errors : sum local = 2.85201e-08, global = 1.72521e-20, cumulative = 1.29172e-19
DICPCG:  Solving for p, Initial residual = 0.00329244, Final residual = 9.96009e-07, No Iterations 213
time step continuity errors : sum local = 6.43112e-11, global = -1.10919e-20, cumulative = 1.1808e-19
ExecutionTime = 2.5 s  ClockTime = 2 s

Time = 0.015

Courant Number mean: 0.014865 max: 0.521961
smoothSolver:  Solving for Ux, Initial residual = 0.00986572, Final residual = 1.3879e-06, No Iterations 3
smoothSolver:  Solving for Uy, Initial residual = 0.0109495, Final residual = 1.90532e-06, No Iterations 3
DICPCG:  Solving for p, Initial residual = 0.00889337, Final residual = 0.000439959, No Iterations 57
time step continuity errors : sum local = 2.84917e-08, global = -4.38717e-21, cumulative = 1.13693e-19
DICPCG:  Solving for p, Initial residual = 0.00318298, Final residual = 9.63127e-07, No Iterations 213
time step continuity errors : sum local = 6.25044e-11, global = -1.67524e-20, cumulative = 9.69402e-20
ExecutionTime = 2.6 s  ClockTime = 2 s

Time = 0.015625

Courant Number mean: 0.0151581 max: 0.524148
smoothSolver:  Solving for Ux, Initial residual = 0.0094282, Final residual = 1.32996e-06, No Iterations 3
smoothSolver:  Solving for Uy, Initial residual = 0.0104654, Final residual = 1.81957e-06, No Iterations 3
DICPCG:  Solving for p, Initial residual = 0.00860361, Final residual = 0.000411656, No Iterations 57
time step continuity errors : sum local = 2.67924e-08, global = 1.58768e-20, cumulative = 1.12817e-19
DICPCG:  Solving for p, Initial residual = 0.00308744, Final residual = 9.34824e-07, No Iterations 213
time step continuity errors : sum local = 6.0962e-11, global = 3.78927e-21, cumulative = 1.16606e-19
ExecutionTime = 2.69 s  ClockTime = 3 s

Time = 0.01625

Courant Number mean: 0.0154445 max: 0.52619
smoothSolver:  Solving for Ux, Initial residual = 0.00902901, Final residual = 1.27633e-06, No Iterations 3
smoothSolver:  Solving for Uy, Initial residual = 0.0100229, Final residual = 1.74116e-06, No Iterations 3
DICPCG:  Solving for p, Initial residual = 0.00831374, Final residual = 0.000414631, No Iterations 56
time step continuity errors : sum local = 2.71108e-08, global = -1.18294e-22, cumulative = 1.16488e-19
DICPCG:  Solving for p, Initial residual = 0.00298935, Final residual = 9.05777e-07, No Iterations 213
time step continuity errors : sum local = 5.93315e-11, global = 1.76782e-20, cumulative = 1.34166e-19
ExecutionTime = 2.79 s  ClockTime = 3 s

Time = 0.016875

Courant Number mean: 0.0157241 max: 0.528103
smoothSolver:  Solving for Ux, Initial residual = 0.00866036, Final residual = 1.22646e-06, No Iterations 3
smoothSolver:  Solving for Uy, Initial residual = 0.00961696, Final residual = 1.66906e-06, No Iterations 3
DICPCG:  Solving for p, Initial residual = 0.00804928, Final residual = 0.000392289, No Iterations 56
time step continuity errors : sum local = 2.5763e-08, global = -9.49222e-21, cumulative = 1.24674e-19
DICPCG:  Solving for p, Initial residual = 0.00291794, Final residual = 8.88819e-07, No Iterations 213
time step continuity errors : sum local = 5.8465e-11, global = 2.51896e-20, cumulative = 1.49864e-19
ExecutionTime = 2.89 s  ClockTime = 3 s

Time = 0.0175

Courant Number mean: 0.0159967 max: 0.5299
smoothSolver:  Solving for Ux, Initial residual = 0.00832007, Final residual = 1.18042e-06, No Iterations 3
smoothSolver:  Solving for Uy, Initial residual = 0.00924272, Final residual = 1.60259e-06, No Iterations 3
DICPCG:  Solving for p, Initial residual = 0.00782185, Final residual = 0.000371027, No Iterations 56
time step continuity errors : sum local = 2.44662e-08, global = -1.71986e-20, cumulative = 1.32665e-19
DICPCG:  Solving for p, Initial residual = 0.00282452, Final residual = 8.65869e-07, No Iterations 213
time step continuity errors : sum local = 5.71792e-11, global = 1.19375e-20, cumulative = 1.44602e-19
ExecutionTime = 2.99 s  ClockTime = 3 s

Time = 0.018125

Courant Number mean: 0.0162627 max: 0.531594
smoothSolver:  Solving for Ux, Initial residual = 0.0080043, Final residual = 1.13796e-06, No Iterations 3
smoothSolver:  Solving for Uy, Initial residual = 0.00889649, Final residual = 1.54122e-06, No Iterations 3
DICPCG:  Solving for p, Initial residual = 0.00759941, Final residual = 0.000379838, No Iterations 55
time step continuity errors : sum local = 2.51405e-08, global = -2.04143e-20, cumulative = 1.24188e-19
DICPCG:  Solving for p, Initial residual = 0.00275397, Final residual = 8.47004e-07, No Iterations 213
time step continuity errors : sum local = 5.61345e-11, global = 4.76367e-20, cumulative = 1.71825e-19
ExecutionTime = 3.08 s  ClockTime = 3 s

Time = 0.01875

Courant Number mean: 0.0165221 max: 0.533192
smoothSolver:  Solving for Ux, Initial residual = 0.00771071, Final residual = 1.09842e-06, No Iterations 3
smoothSolver:  Solving for Uy, Initial residual = 0.00857621, Final residual = 1.48425e-06, No Iterations 3
DICPCG:  Solving for p, Initial residual = 0.00739286, Final residual = 0.000359467, No Iterations 55
time step continuity errors : sum local = 2.3877e-08, global = 1.53263e-20, cumulative = 1.87151e-19
DICPCG:  Solving for p, Initial residual = 0.00269374, Final residual = 9.83447e-07, No Iterations 212
time step continuity errors : sum local = 6.54054e-11, global = 1.66013e-20, cumulative = 2.03752e-19
ExecutionTime = 3.18 s  ClockTime = 3 s

Time = 0.019375

Courant Number mean: 0.0167752 max: 0.534704
smoothSolver:  Solving for Ux, Initial residual = 0.00743706, Final residual = 1.0615e-06, No Iterations 3
smoothSolver:  Solving for Uy, Initial residual = 0.00827831, Final residual = 1.43126e-06, No Iterations 3
DICPCG:  Solving for p, Initial residual = 0.00742812, Final residual = 0.000362516, No Iterations 54
time step continuity errors : sum local = 2.41584e-08, global = -3.60845e-20, cumulative = 1.67668e-19
DICPCG:  Solving for p, Initial residual = 0.00263741, Final residual = 9.62569e-07, No Iterations 212
time step continuity errors : sum local = 6.4223e-11, global = -2.1018e-20, cumulative = 1.4665e-19
ExecutionTime = 3.27 s  ClockTime = 3 s

Time = 0.02

Courant Number mean: 0.0170222 max: 0.536138
smoothSolver:  Solving for Ux, Initial residual = 0.00718057, Final residual = 1.02686e-06, No Iterations 3
smoothSolver:  Solving for Uy, Initial residual = 0.00800082, Final residual = 1.38191e-06, No Iterations 3
DICPCG:  Solving for p, Initial residual = 0.00702004, Final residual = 0.000350667, No Iterations 54
time step continuity errors : sum local = 2.34413e-08, global = -7.48333e-21, cumulative = 1.39167e-19
DICPCG:  Solving for p, Initial residual = 0.00257177, Final residual = 9.29368e-07, No Iterations 212
time step continuity errors : sum local = 6.21947e-11, global = 6.62071e-21, cumulative = 1.45787e-19
ExecutionTime = 3.37 s  ClockTime = 3 s

Time = 0.020625

Courant Number mean: 0.0172634 max: 0.537501
smoothSolver:  Solving for Ux, Initial residual = 0.00694172, Final residual = 9.94349e-07, No Iterations 3
smoothSolver:  Solving for Uy, Initial residual = 0.00774173, Final residual = 1.33582e-06, No Iterations 3
DICPCG:  Solving for p, Initial residual = 0.00738051, Final residual = 0.000358608, No Iterations 53
time step continuity errors : sum local = 2.40424e-08, global = 2.65342e-20, cumulative = 1.72321e-19
DICPCG:  Solving for p, Initial residual = 0.00251361, Final residual = 8.95595e-07, No Iterations 212
time step continuity errors : sum local = 6.0112e-11, global = -5.08402e-21, cumulative = 1.67237e-19
ExecutionTime = 3.47 s  ClockTime = 3 s

Time = 0.02125

Courant Number mean: 0.0174995 max: 0.538797
smoothSolver:  Solving for Ux, Initial residual = 0.00671964, Final residual = 9.63742e-07, No Iterations 3
smoothSolver:  Solving for Uy, Initial residual = 0.00749894, Final residual = 1.29265e-06, No Iterations 3
DICPCG:  Solving for p, Initial residual = 0.00676961, Final residual = 0.000318986, No Iterations 54
time step continuity errors : sum local = 2.14503e-08, global = -6.78318e-21, cumulative = 1.60454e-19
DICPCG:  Solving for p, Initial residual = 0.00244381, Final residual = 9.0518e-07, No Iterations 212
time step continuity errors : sum local = 6.09304e-11, global = 8.56617e-21, cumulative = 1.6902e-19
ExecutionTime = 3.56 s  ClockTime = 3 s

Time = 0.021875

Courant Number mean: 0.0177301 max: 0.540031
smoothSolver:  Solving for Ux, Initial residual = 0.00651132, Final residual = 9.34972e-07, No Iterations 3
smoothSolver:  Solving for Uy, Initial residual = 0.00727204, Final residual = 1.25222e-06, No Iterations 3
DICPCG:  Solving for p, Initial residual = 0.00662256, Final residual = 0.000308218, No Iterations 54
time step continuity errors : sum local = 2.07835e-08, global = -6.50988e-21, cumulative = 1.62511e-19
DICPCG:  Solving for p, Initial residual = 0.00240114, Final residual = 8.76848e-07, No Iterations 212
time step continuity errors : sum local = 5.91819e-11, global = -9.17543e-21, cumulative = 1.53335e-19
ExecutionTime = 3.66 s  ClockTime = 3 s

Time = 0.0225

Courant Number mean: 0.0179553 max: 0.541211
smoothSolver:  Solving for Ux, Initial residual = 0.00631536, Final residual = 9.07797e-07, No Iterations 3
smoothSolver:  Solving for Uy, Initial residual = 0.00705867, Final residual = 1.2142e-06, No Iterations 3
DICPCG:  Solving for p, Initial residual = 0.0065002, Final residual = 0.00031967, No Iterations 53
time step continuity errors : sum local = 2.16098e-08, global = 2.0468e-20, cumulative = 1.73803e-19
DICPCG:  Solving for p, Initial residual = 0.00235515, Final residual = 8.5391e-07, No Iterations 212
time step continuity errors : sum local = 5.77775e-11, global = 3.35022e-21, cumulative = 1.77153e-19
ExecutionTime = 3.75 s  ClockTime = 4 s

Time = 0.023125

Courant Number mean: 0.0181757 max: 0.542338
smoothSolver:  Solving for Ux, Initial residual = 0.00613067, Final residual = 8.82159e-07, No Iterations 3
smoothSolver:  Solving for Uy, Initial residual = 0.0068578, Final residual = 1.17838e-06, No Iterations 3
DICPCG:  Solving for p, Initial residual = 0.00639496, Final residual = 0.000306544, No Iterations 53
time step continuity errors : sum local = 2.07726e-08, global = -3.02022e-20, cumulative = 1.46951e-19
DICPCG:  Solving for p, Initial residual = 0.00232091, Final residual = 9.95094e-07, No Iterations 211
time step continuity errors : sum local = 6.74905e-11, global = -1.20254e-21, cumulative = 1.45749e-19
ExecutionTime = 3.86 s  ClockTime = 4 s

Time = 0.02375

Courant Number mean: 0.0183928 max: 0.543416
smoothSolver:  Solving for Ux, Initial residual = 0.00595647, Final residual = 8.57939e-07, No Iterations 3
smoothSolver:  Solving for Uy, Initial residual = 0.00666871, Final residual = 1.14463e-06, No Iterations 3
DICPCG:  Solving for p, Initial residual = 0.00628565, Final residual = 0.000296774, No Iterations 53
time step continuity errors : sum local = 2.01564e-08, global = -1.60008e-20, cumulative = 1.29748e-19
DICPCG:  Solving for p, Initial residual = 0.0022756, Final residual = 9.78755e-07, No Iterations 211
time step continuity errors : sum local = 6.65334e-11, global = -9.45809e-22, cumulative = 1.28802e-19
ExecutionTime = 3.95 s  ClockTime = 4 s

Time = 0.024375

Courant Number mean: 0.018607 max: 0.544449
smoothSolver:  Solving for Ux, Initial residual = 0.00579096, Final residual = 8.35054e-07, No Iterations 3
smoothSolver:  Solving for Uy, Initial residual = 0.00648993, Final residual = 1.11275e-06, No Iterations 3
DICPCG:  Solving for p, Initial residual = 0.0061735, Final residual = 0.000305395, No Iterations 52
time step continuity errors : sum local = 2.0787e-08, global = 1.83172e-20, cumulative = 1.47119e-19
DICPCG:  Solving for p, Initial residual = 0.00223589, Final residual = 9.62994e-07, No Iterations 211
time step continuity errors : sum local = 6.56064e-11, global = -1.83337e-20, cumulative = 1.28785e-19
ExecutionTime = 4.05 s  ClockTime = 4 s

Time = 0.025

Courant Number mean: 0.0188176 max: 0.545442
smoothSolver:  Solving for Ux, Initial residual = 0.00563322, Final residual = 8.13267e-07, No Iterations 3
smoothSolver:  Solving for Uy, Initial residual = 0.00632091, Final residual = 1.08259e-06, No Iterations 3
DICPCG:  Solving for p, Initial residual = 0.00606544, Final residual = 0.000295071, No Iterations 52
time step continuity errors : sum local = 2.01272e-08, global = -5.50552e-22, cumulative = 1.28235e-19
DICPCG:  Solving for p, Initial residual = 0.00220566, Final residual = 9.44097e-07, No Iterations 211
time step continuity errors : sum local = 6.44588e-11, global = -3.9324e-20, cumulative = 8.89109e-20
ExecutionTime = 4.14 s  ClockTime = 4 s

Time = 0.025625

Courant Number mean: 0.0190245 max: 0.546395
smoothSolver:  Solving for Ux, Initial residual = 0.00548293, Final residual = 7.92542e-07, No Iterations 3
smoothSolver:  Solving for Uy, Initial residual = 0.00616087, Final residual = 1.05403e-06, No Iterations 3
DICPCG:  Solving for p, Initial residual = 0.00608358, Final residual = 0.000300757, No Iterations 51
time step continuity errors : sum local = 2.05571e-08, global = 2.10679e-20, cumulative = 1.09979e-19
DICPCG:  Solving for p, Initial residual = 0.0021653, Final residual = 9.17982e-07, No Iterations 211
time step continuity errors : sum local = 6.28065e-11, global = 3.50238e-20, cumulative = 1.45003e-19
ExecutionTime = 4.24 s  ClockTime = 4 s

Time = 0.02625

Courant Number mean: 0.0192282 max: 0.547311
smoothSolver:  Solving for Ux, Initial residual = 0.00533958, Final residual = 7.72773e-07, No Iterations 3
smoothSolver:  Solving for Uy, Initial residual = 0.00600891, Final residual = 1.02692e-06, No Iterations 3
DICPCG:  Solving for p, Initial residual = 0.00603002, Final residual = 0.000288692, No Iterations 51
time step continuity errors : sum local = 1.97722e-08, global = 2.69466e-20, cumulative = 1.71949e-19
DICPCG:  Solving for p, Initial residual = 0.00216039, Final residual = 9.13131e-07, No Iterations 211
time step continuity errors : sum local = 6.26021e-11, global = 9.25086e-21, cumulative = 1.812e-19
ExecutionTime = 4.33 s  ClockTime = 4 s

Time = 0.026875

Courant Number mean: 0.0194283 max: 0.548192
smoothSolver:  Solving for Ux, Initial residual = 0.00520438, Final residual = 7.53957e-07, No Iterations 3
smoothSolver:  Solving for Uy, Initial residual = 0.00586535, Final residual = 1.00126e-06, No Iterations 3
DICPCG:  Solving for p, Initial residual = 0.00576279, Final residual = 0.00028399, No Iterations 51
time step continuity errors : sum local = 1.94882e-08, global = -3.46018e-21, cumulative = 1.7774e-19
DICPCG:  Solving for p, Initial residual = 0.00211406, Final residual = 8.89215e-07, No Iterations 211
time step continuity errors : sum local = 6.10803e-11, global = 6.23516e-21, cumulative = 1.83975e-19
ExecutionTime = 4.43 s  ClockTime = 4 s

Time = 0.0275

Courant Number mean: 0.019625 max: 0.549043
smoothSolver:  Solving for Ux, Initial residual = 0.00507609, Final residual = 7.35997e-07, No Iterations 3
smoothSolver:  Solving for Uy, Initial residual = 0.00572854, Final residual = 9.76806e-07, No Iterations 3
DICPCG:  Solving for p, Initial residual = 0.00566548, Final residual = 0.000275843, No Iterations 51
time step continuity errors : sum local = 1.89656e-08, global = 1.99277e-20, cumulative = 2.03903e-19
DICPCG:  Solving for p, Initial residual = 0.00207848, Final residual = 8.72778e-07, No Iterations 211
time step continuity errors : sum local = 6.00675e-11, global = 7.40173e-21, cumulative = 2.11304e-19
ExecutionTime = 4.52 s  ClockTime = 4 s

Time = 0.028125

Courant Number mean: 0.0198182 max: 0.549863
smoothSolver:  Solving for Ux, Initial residual = 0.00495421, Final residual = 7.18833e-07, No Iterations 3
smoothSolver:  Solving for Uy, Initial residual = 0.00559848, Final residual = 9.53552e-07, No Iterations 3
DICPCG:  Solving for p, Initial residual = 0.00557594, Final residual = 0.000266893, No Iterations 51
time step continuity errors : sum local = 1.8385e-08, global = 7.53956e-21, cumulative = 2.18844e-19
DICPCG:  Solving for p, Initial residual = 0.00204615, Final residual = 8.55338e-07, No Iterations 211
time step continuity errors : sum local = 5.89784e-11, global = -1.13803e-20, cumulative = 2.07464e-19
ExecutionTime = 4.62 s  ClockTime = 4 s

Time = 0.02875

Courant Number mean: 0.0200082 max: 0.550654
smoothSolver:  Solving for Ux, Initial residual = 0.00483809, Final residual = 7.0243e-07, No Iterations 3
smoothSolver:  Solving for Uy, Initial residual = 0.00547448, Final residual = 9.31391e-07, No Iterations 3
DICPCG:  Solving for p, Initial residual = 0.00550883, Final residual = 0.000258324, No Iterations 51
time step continuity errors : sum local = 1.78271e-08, global = -4.95283e-21, cumulative = 2.02511e-19
DICPCG:  Solving for p, Initial residual = 0.00201531, Final residual = 8.40657e-07, No Iterations 211
time step continuity errors : sum local = 5.80699e-11, global = -3.76109e-20, cumulative = 1.649e-19
ExecutionTime = 4.71 s  ClockTime = 5 s

Time = 0.029375

Courant Number mean: 0.0201951 max: 0.551419
smoothSolver:  Solving for Ux, Initial residual = 0.00472711, Final residual = 6.86806e-07, No Iterations 3
smoothSolver:  Solving for Uy, Initial residual = 0.00535628, Final residual = 9.10263e-07, No Iterations 3
DICPCG:  Solving for p, Initial residual = 0.00582384, Final residual = 0.000289958, No Iterations 49
time step continuity errors : sum local = 2.00414e-08, global = -5.99696e-21, cumulative = 1.58903e-19
DICPCG:  Solving for p, Initial residual = 0.00200743, Final residual = 8.30062e-07, No Iterations 211
time step continuity errors : sum local = 5.74331e-11, global = 2.46536e-20, cumulative = 1.83557e-19
ExecutionTime = 4.81 s  ClockTime = 5 s

Time = 0.03

Courant Number mean: 0.0203786 max: 0.552159
smoothSolver:  Solving for Ux, Initial residual = 0.00462043, Final residual = 6.71729e-07, No Iterations 3
smoothSolver:  Solving for Uy, Initial residual = 0.00524379, Final residual = 8.90096e-07, No Iterations 3
DICPCG:  Solving for p, Initial residual = 0.00556254, Final residual = 0.000264724, No Iterations 50
time step continuity errors : sum local = 1.8325e-08, global = -5.23887e-20, cumulative = 1.31168e-19
DICPCG:  Solving for p, Initial residual = 0.00196145, Final residual = 9.664e-07, No Iterations 210
time step continuity errors : sum local = 6.69572e-11, global = 2.39088e-20, cumulative = 1.55077e-19
ExecutionTime = 4.9 s  ClockTime = 5 s

Time = 0.030625

Courant Number mean: 0.0205597 max: 0.552874
smoothSolver:  Solving for Ux, Initial residual = 0.00451885, Final residual = 6.57305e-07, No Iterations 3
smoothSolver:  Solving for Uy, Initial residual = 0.00513561, Final residual = 8.70797e-07, No Iterations 3
DICPCG:  Solving for p, Initial residual = 0.00577108, Final residual = 0.000275433, No Iterations 49
time step continuity errors : sum local = 1.90962e-08, global = -4.34367e-20, cumulative = 1.1164e-19
DICPCG:  Solving for p, Initial residual = 0.00194967, Final residual = 9.40975e-07, No Iterations 210
time step continuity errors : sum local = 6.53029e-11, global = 1.19138e-20, cumulative = 1.23554e-19
ExecutionTime = 4.99 s  ClockTime = 5 s

Time = 0.03125

Courant Number mean: 0.0207377 max: 0.553567
smoothSolver:  Solving for Ux, Initial residual = 0.00442114, Final residual = 6.43527e-07, No Iterations 3
smoothSolver:  Solving for Uy, Initial residual = 0.0050325, Final residual = 8.52383e-07, No Iterations 3
DICPCG:  Solving for p, Initial residual = 0.00523561, Final residual = 0.000253372, No Iterations 50
time step continuity errors : sum local = 1.75964e-08, global = 1.31509e-20, cumulative = 1.36705e-19
DICPCG:  Solving for p, Initial residual = 0.00191398, Final residual = 9.41993e-07, No Iterations 210
time step continuity errors : sum local = 6.54885e-11, global = 1.88285e-21, cumulative = 1.38587e-19
ExecutionTime = 5.09 s  ClockTime = 5 s

Time = 0.031875

Courant Number mean: 0.0209127 max: 0.55424
smoothSolver:  Solving for Ux, Initial residual = 0.00432709, Final residual = 6.30353e-07, No Iterations 3
smoothSolver:  Solving for Uy, Initial residual = 0.00493405, Final residual = 8.34772e-07, No Iterations 3
DICPCG:  Solving for p, Initial residual = 0.00516782, Final residual = 0.000247643, No Iterations 50
time step continuity errors : sum local = 1.7227e-08, global = 1.64475e-20, cumulative = 1.55035e-19
DICPCG:  Solving for p, Initial residual = 0.00189875, Final residual = 9.19566e-07, No Iterations 210
time step continuity errors : sum local = 6.40329e-11, global = -3.81353e-20, cumulative = 1.169e-19
ExecutionTime = 5.18 s  ClockTime = 5 s

Time = 0.0325

Courant Number mean: 0.0210849 max: 0.554892
smoothSolver:  Solving for Ux, Initial residual = 0.00423675, Final residual = 6.1767e-07, No Iterations 3
smoothSolver:  Solving for Uy, Initial residual = 0.00483971, Final residual = 8.17884e-07, No Iterations 3
DICPCG:  Solving for p, Initial residual = 0.0051135, Final residual = 0.000242272, No Iterations 50
time step continuity errors : sum local = 1.688e-08, global = 4.31734e-20, cumulative = 1.60073e-19
DICPCG:  Solving for p, Initial residual = 0.00187563, Final residual = 8.97396e-07, No Iterations 210
time step continuity errors : sum local = 6.25869e-11, global = 2.21343e-20, cumulative = 1.82207e-19
ExecutionTime = 5.27 s  ClockTime = 5 s

Time = 0.033125

Courant Number mean: 0.0212544 max: 0.555524
smoothSolver:  Solving for Ux, Initial residual = 0.00414979, Final residual = 6.05477e-07, No Iterations 3
smoothSolver:  Solving for Uy, Initial residual = 0.00474934, Final residual = 8.01687e-07, No Iterations 3
DICPCG:  Solving for p, Initial residual = 0.00505658, Final residual = 0.000237177, No Iterations 50
time step continuity errors : sum local = 1.655e-08, global = -1.15915e-20, cumulative = 1.70616e-19
DICPCG:  Solving for p, Initial residual = 0.00185418, Final residual = 8.78738e-07, No Iterations 210
time step continuity errors : sum local = 6.13796e-11, global = 2.19533e-21, cumulative = 1.72811e-19
ExecutionTime = 5.37 s  ClockTime = 5 s

Time = 0.03375

Courant Number mean: 0.0214211 max: 0.556139
smoothSolver:  Solving for Ux, Initial residual = 0.00406703, Final residual = 5.93783e-07, No Iterations 3
smoothSolver:  Solving for Uy, Initial residual = 0.00466264, Final residual = 7.86159e-07, No Iterations 3
DICPCG:  Solving for p, Initial residual = 0.00499669, Final residual = 0.000249508, No Iterations 49
time step continuity errors : sum local = 1.74346e-08, global = -2.28871e-20, cumulative = 1.49924e-19
DICPCG:  Solving for p, Initial residual = 0.0018396, Final residual = 8.5843e-07, No Iterations 210
time step continuity errors : sum local = 6.00478e-11, global = 1.42004e-20, cumulative = 1.64125e-19
ExecutionTime = 5.46 s  ClockTime = 5 s

Time = 0.034375

Courant Number mean: 0.0215864 max: 0.556737
smoothSolver:  Solving for Ux, Initial residual = 0.00398759, Final residual = 5.82507e-07, No Iterations 3
smoothSolver:  Solving for Uy, Initial residual = 0.00457948, Final residual = 7.71227e-07, No Iterations 3
DICPCG:  Solving for p, Initial residual = 0.00493993, Final residual = 0.000244503, No Iterations 49
time step continuity errors : sum local = 1.71077e-08, global = -2.43112e-21, cumulative = 1.61693e-19
DICPCG:  Solving for p, Initial residual = 0.00182823, Final residual = 8.43715e-07, No Iterations 210
time step continuity errors : sum local = 5.90994e-11, global = 1.12725e-20, cumulative = 1.72966e-19
ExecutionTime = 5.56 s  ClockTime = 5 s

Time = 0.035

Courant Number mean: 0.0217499 max: 0.557317
smoothSolver:  Solving for Ux, Initial residual = 0.00391145, Final residual = 5.71652e-07, No Iterations 3
smoothSolver:  Solving for Uy, Initial residual = 0.00449949, Final residual = 7.56876e-07, No Iterations 3
DICPCG:  Solving for p, Initial residual = 0.0048764, Final residual = 0.000239775, No Iterations 49
time step continuity errors : sum local = 1.67996e-08, global = -1.68171e-20, cumulative = 1.56149e-19
DICPCG:  Solving for p, Initial residual = 0.00180825, Final residual = 9.94482e-07, No Iterations 209
time step continuity errors : sum local = 6.9734e-11, global = 1.98255e-20, cumulative = 1.75974e-19
ExecutionTime = 5.66 s  ClockTime = 5 s

Time = 0.035625

Courant Number mean: 0.0219115 max: 0.557884
smoothSolver:  Solving for Ux, Initial residual = 0.00383783, Final residual = 5.6122e-07, No Iterations 3
smoothSolver:  Solving for Uy, Initial residual = 0.0044226, Final residual = 7.43085e-07, No Iterations 3
DICPCG:  Solving for p, Initial residual = 0.00482133, Final residual = 0.000235461, No Iterations 49
time step continuity errors : sum local = 1.65192e-08, global = 1.75828e-20, cumulative = 1.93557e-19
DICPCG:  Solving for p, Initial residual = 0.00179056, Final residual = 9.78063e-07, No Iterations 209
time step continuity errors : sum local = 6.86752e-11, global = 6.17067e-21, cumulative = 1.99728e-19
ExecutionTime = 5.75 s  ClockTime = 6 s

Time = 0.03625

Courant Number mean: 0.0220714 max: 0.558434
smoothSolver:  Solving for Ux, Initial residual = 0.00376671, Final residual = 5.51172e-07, No Iterations 3
smoothSolver:  Solving for Uy, Initial residual = 0.00434864, Final residual = 7.29828e-07, No Iterations 3
DICPCG:  Solving for p, Initial residual = 0.00476801, Final residual = 0.000231412, No Iterations 49
time step continuity errors : sum local = 1.6256e-08, global = 2.7766e-20, cumulative = 2.27494e-19
DICPCG:  Solving for p, Initial residual = 0.00177436, Final residual = 9.57395e-07, No Iterations 209
time step continuity errors : sum local = 6.73108e-11, global = -1.06807e-20, cumulative = 2.16813e-19
ExecutionTime = 5.84 s  ClockTime = 6 s

Time = 0.036875

Courant Number mean: 0.0222291 max: 0.558971
smoothSolver:  Solving for Ux, Initial residual = 0.0036981, Final residual = 5.41428e-07, No Iterations 3
smoothSolver:  Solving for Uy, Initial residual = 0.00427745, Final residual = 7.17064e-07, No Iterations 3
DICPCG:  Solving for p, Initial residual = 0.00471527, Final residual = 0.000227483, No Iterations 49
time step continuity errors : sum local = 1.60001e-08, global = -2.00098e-20, cumulative = 1.96803e-19
DICPCG:  Solving for p, Initial residual = 0.001756, Final residual = 9.348e-07, No Iterations 209
time step continuity errors : sum local = 6.58058e-11, global = 2.14012e-21, cumulative = 1.98943e-19
ExecutionTime = 5.94 s  ClockTime = 6 s

Time = 0.0375

Courant Number mean: 0.0223849 max: 0.559495
smoothSolver:  Solving for Ux, Initial residual = 0.00363167, Final residual = 9.92156e-06, No Iterations 2
smoothSolver:  Solving for Uy, Initial residual = 0.00420877, Final residual = 7.04774e-07, No Iterations 3
DICPCG:  Solving for p, Initial residual = 0.00467103, Final residual = 0.000224887, No Iterations 49
time step continuity errors : sum local = 1.58394e-08, global = 7.67719e-21, cumulative = 2.06621e-19
DICPCG:  Solving for p, Initial residual = 0.00173948, Final residual = 8.79668e-07, No Iterations 209
time step continuity errors : sum local = 6.2018e-11, global = 2.90199e-20, cumulative = 2.3564e-19
ExecutionTime = 6.03 s  ClockTime = 6 s

Time = 0.038125

Courant Number mean: 0.0225386 max: 0.560006
smoothSolver:  Solving for Ux, Initial residual = 0.00356742, Final residual = 9.75223e-06, No Iterations 2
smoothSolver:  Solving for Uy, Initial residual = 0.00414263, Final residual = 6.92916e-07, No Iterations 3
DICPCG:  Solving for p, Initial residual = 0.00462882, Final residual = 0.000221778, No Iterations 49
time step continuity errors : sum local = 1.56409e-08, global = -1.19148e-20, cumulative = 2.23726e-19
DICPCG:  Solving for p, Initial residual = 0.00172364, Final residual = 8.55478e-07, No Iterations 209
time step continuity errors : sum local = 6.04057e-11, global = -2.44966e-20, cumulative = 1.99229e-19
ExecutionTime = 6.12 s  ClockTime = 6 s

Time = 0.03875

Courant Number mean: 0.0226904 max: 0.560506
smoothSolver:  Solving for Ux, Initial residual = 0.00350512, Final residual = 9.58744e-06, No Iterations 2
smoothSolver:  Solving for Uy, Initial residual = 0.00407886, Final residual = 6.81489e-07, No Iterations 3
DICPCG:  Solving for p, Initial residual = 0.00482272, Final residual = 0.000233007, No Iterations 47
time step continuity errors : sum local = 1.64556e-08, global = -5.62667e-21, cumulative = 1.93602e-19
DICPCG:  Solving for p, Initial residual = 0.00170019, Final residual = 8.30485e-07, No Iterations 209
time step continuity errors : sum local = 5.87294e-11, global = 2.48265e-21, cumulative = 1.96085e-19
ExecutionTime = 6.22 s  ClockTime = 6 s

Time = 0.039375

Courant Number mean: 0.0228403 max: 0.560993
smoothSolver:  Solving for Ux, Initial residual = 0.00344449, Final residual = 9.42666e-06, No Iterations 2
smoothSolver:  Solving for Uy, Initial residual = 0.00401747, Final residual = 6.70466e-07, No Iterations 3
DICPCG:  Solving for p, Initial residual = 0.00482502, Final residual = 0.000233546, No Iterations 47
time step continuity errors : sum local = 1.65148e-08, global = 8.35462e-21, cumulative = 2.0444e-19
DICPCG:  Solving for p, Initial residual = 0.00171077, Final residual = 9.74819e-07, No Iterations 208
time step continuity errors : sum local = 6.90285e-11, global = -4.82913e-20, cumulative = 1.56148e-19
ExecutionTime = 6.31 s  ClockTime = 6 s

Time = 0.04

Courant Number mean: 0.0229883 max: 0.561471
smoothSolver:  Solving for Ux, Initial residual = 0.00338622, Final residual = 9.2725e-06, No Iterations 2
smoothSolver:  Solving for Uy, Initial residual = 0.00395768, Final residual = 6.59794e-07, No Iterations 3
DICPCG:  Solving for p, Initial residual = 0.00449945, Final residual = 0.000219837, No Iterations 48
time step continuity errors : sum local = 1.55689e-08, global = 1.13688e-20, cumulative = 1.67517e-19
DICPCG:  Solving for p, Initial residual = 0.00166887, Final residual = 9.53487e-07, No Iterations 208
time step continuity errors : sum local = 6.76086e-11, global = -3.11318e-20, cumulative = 1.36385e-19
ExecutionTime = 6.4 s  ClockTime = 6 s

Time = 0.040625

Courant Number mean: 0.0231348 max: 0.561938
smoothSolver:  Solving for Ux, Initial residual = 0.00332969, Final residual = 9.12365e-06, No Iterations 2
smoothSolver:  Solving for Uy, Initial residual = 0.00390043, Final residual = 6.49519e-07, No Iterations 3
DICPCG:  Solving for p, Initial residual = 0.00447211, Final residual = 0.000216861, No Iterations 48
time step continuity errors : sum local = 1.53806e-08, global = -5.44921e-21, cumulative = 1.30936e-19
DICPCG:  Solving for p, Initial residual = 0.00166132, Final residual = 9.33768e-07, No Iterations 208
time step continuity errors : sum local = 6.62975e-11, global = -4.93262e-20, cumulative = 8.161e-20
ExecutionTime = 6.49 s  ClockTime = 6 s

Time = 0.04125

Courant Number mean: 0.0232794 max: 0.562396
smoothSolver:  Solving for Ux, Initial residual = 0.00327528, Final residual = 8.97933e-06, No Iterations 2
smoothSolver:  Solving for Uy, Initial residual = 0.0038452, Final residual = 6.39594e-07, No Iterations 3
DICPCG:  Solving for p, Initial residual = 0.00442782, Final residual = 0.000213287, No Iterations 48
time step continuity errors : sum local = 1.51479e-08, global = 2.0123e-20, cumulative = 1.01733e-19
DICPCG:  Solving for p, Initial residual = 0.00164604, Final residual = 9.0687e-07, No Iterations 208
time step continuity errors : sum local = 6.44675e-11, global = -1.42566e-20, cumulative = 8.74764e-20
ExecutionTime = 6.59 s  ClockTime = 6 s

Time = 0.041875

Courant Number mean: 0.023422 max: 0.562846
smoothSolver:  Solving for Ux, Initial residual = 0.00322286, Final residual = 8.83975e-06, No Iterations 2
smoothSolver:  Solving for Uy, Initial residual = 0.00379177, Final residual = 6.30011e-07, No Iterations 3
DICPCG:  Solving for p, Initial residual = 0.00439258, Final residual = 0.000218126, No Iterations 47
time step continuity errors : sum local = 1.5511e-08, global = -3.06298e-20, cumulative = 5.68466e-20
DICPCG:  Solving for p, Initial residual = 0.00163365, Final residual = 8.94304e-07, No Iterations 208
time step continuity errors : sum local = 6.36483e-11, global = 2.01403e-20, cumulative = 7.69869e-20
ExecutionTime = 6.68 s  ClockTime = 7 s

Time = 0.0425

Courant Number mean: 0.0235628 max: 0.563289
smoothSolver:  Solving for Ux, Initial residual = 0.00317203, Final residual = 8.70451e-06, No Iterations 2
smoothSolver:  Solving for Uy, Initial residual = 0.00374003, Final residual = 6.20721e-07, No Iterations 3
DICPCG:  Solving for p, Initial residual = 0.004438, Final residual = 0.000216152, No Iterations 47
time step continuity errors : sum local = 1.53891e-08, global = -1.36996e-20, cumulative = 6.32873e-20
DICPCG:  Solving for p, Initial residual = 0.00162444, Final residual = 8.70206e-07, No Iterations 208
time step continuity errors : sum local = 6.20068e-11, global = 1.0883e-21, cumulative = 6.43756e-20
ExecutionTime = 6.77 s  ClockTime = 7 s

Time = 0.043125

Courant Number mean: 0.023702 max: 0.563736
smoothSolver:  Solving for Ux, Initial residual = 0.0031228, Final residual = 8.57533e-06, No Iterations 2
smoothSolver:  Solving for Uy, Initial residual = 0.00368978, Final residual = 6.11711e-07, No Iterations 3
DICPCG:  Solving for p, Initial residual = 0.00440822, Final residual = 0.000218735, No Iterations 46
time step continuity errors : sum local = 1.55926e-08, global = -4.3946e-21, cumulative = 5.9981e-20
DICPCG:  Solving for p, Initial residual = 0.00160977, Final residual = 9.97282e-07, No Iterations 207
time step continuity errors : sum local = 7.1158e-11, global = -9.2339e-21, cumulative = 5.07471e-20
ExecutionTime = 6.86 s  ClockTime = 7 s

Time = 0.04375

Courant Number mean: 0.0238395 max: 0.564199
smoothSolver:  Solving for Ux, Initial residual = 0.00307502, Final residual = 8.44942e-06, No Iterations 2
smoothSolver:  Solving for Uy, Initial residual = 0.00364158, Final residual = 6.0305e-07, No Iterations 3
DICPCG:  Solving for p, Initial residual = 0.00428546, Final residual = 0.000207793, No Iterations 47
time step continuity errors : sum local = 1.48326e-08, global = 2.9401e-20, cumulative = 8.0148e-20
DICPCG:  Solving for p, Initial residual = 0.00159032, Final residual = 9.69026e-07, No Iterations 207
time step continuity errors : sum local = 6.92418e-11, global = -1.6545e-20, cumulative = 6.36031e-20
ExecutionTime = 6.95 s  ClockTime = 7 s

Time = 0.044375

Courant Number mean: 0.0239752 max: 0.564654
smoothSolver:  Solving for Ux, Initial residual = 0.00302888, Final residual = 8.32692e-06, No Iterations 2
smoothSolver:  Solving for Uy, Initial residual = 0.00359452, Final residual = 5.94618e-07, No Iterations 3
DICPCG:  Solving for p, Initial residual = 0.00424321, Final residual = 0.000204852, No Iterations 47
time step continuity errors : sum local = 1.46437e-08, global = -9.94423e-21, cumulative = 5.36588e-20
DICPCG:  Solving for p, Initial residual = 0.00158404, Final residual = 9.53101e-07, No Iterations 207
time step continuity errors : sum local = 6.81999e-11, global = 4.84216e-20, cumulative = 1.0208e-19
ExecutionTime = 7.04 s  ClockTime = 7 s

Time = 0.045

Courant Number mean: 0.0241092 max: 0.565103
smoothSolver:  Solving for Ux, Initial residual = 0.00298398, Final residual = 8.20715e-06, No Iterations 2
smoothSolver:  Solving for Uy, Initial residual = 0.00354896, Final residual = 5.86441e-07, No Iterations 3
DICPCG:  Solving for p, Initial residual = 0.00420218, Final residual = 0.000201892, No Iterations 47
time step continuity errors : sum local = 1.44518e-08, global = 2.06998e-20, cumulative = 1.2278e-19
DICPCG:  Solving for p, Initial residual = 0.00157121, Final residual = 9.34875e-07, No Iterations 207
time step continuity errors : sum local = 6.69872e-11, global = -1.84685e-20, cumulative = 1.04312e-19
ExecutionTime = 7.13 s  ClockTime = 7 s

Time = 0.045625

Courant Number mean: 0.0242415 max: 0.565546
smoothSolver:  Solving for Ux, Initial residual = 0.0029403, Final residual = 8.09008e-06, No Iterations 2
smoothSolver:  Solving for Uy, Initial residual = 0.00350477, Final residual = 5.78522e-07, No Iterations 3
DICPCG:  Solving for p, Initial residual = 0.00424646, Final residual = 0.000207763, No Iterations 46
time step continuity errors : sum local = 1.48908e-08, global = 3.38484e-20, cumulative = 1.3816e-19
DICPCG:  Solving for p, Initial residual = 0.00155295, Final residual = 9.9477e-07, No Iterations 206
time step continuity errors : sum local = 7.13719e-11, global = 1.61175e-20, cumulative = 1.54278e-19
ExecutionTime = 7.22 s  ClockTime = 7 s

Time = 0.04625

Courant Number mean: 0.0243724 max: 0.56598
smoothSolver:  Solving for Ux, Initial residual = 0.0028977, Final residual = 7.97548e-06, No Iterations 2
smoothSolver:  Solving for Uy, Initial residual = 0.00346168, Final residual = 5.70812e-07, No Iterations 3
DICPCG:  Solving for p, Initial residual = 0.00423453, Final residual = 0.000210255, No Iterations 45
time step continuity errors : sum local = 1.50872e-08, global = 1.39521e-21, cumulative = 1.55673e-19
DICPCG:  Solving for p, Initial residual = 0.00155975, Final residual = 9.95196e-07, No Iterations 206
time step continuity errors : sum local = 7.148e-11, global = 9.58979e-23, cumulative = 1.55769e-19
ExecutionTime = 7.32 s  ClockTime = 7 s

Time = 0.046875

Courant Number mean: 0.0245018 max: 0.566406
smoothSolver:  Solving for Ux, Initial residual = 0.00285621, Final residual = 7.86358e-06, No Iterations 2
smoothSolver:  Solving for Uy, Initial residual = 0.00342039, Final residual = 5.6336e-07, No Iterations 3
DICPCG:  Solving for p, Initial residual = 0.00410271, Final residual = 0.000200333, No Iterations 46
time step continuity errors : sum local = 1.43926e-08, global = -1.46723e-20, cumulative = 1.41097e-19
DICPCG:  Solving for p, Initial residual = 0.00153602, Final residual = 9.62851e-07, No Iterations 206
time step continuity errors : sum local = 6.924e-11, global = -1.2107e-20, cumulative = 1.2899e-19
ExecutionTime = 7.41 s  ClockTime = 7 s

Time = 0.0475

Courant Number mean: 0.0246298 max: 0.566824
smoothSolver:  Solving for Ux, Initial residual = 0.00281601, Final residual = 7.75463e-06, No Iterations 2
smoothSolver:  Solving for Uy, Initial residual = 0.00338004, Final residual = 5.56124e-07, No Iterations 3
DICPCG:  Solving for p, Initial residual = 0.00407324, Final residual = 0.000198006, No Iterations 46
time step continuity errors : sum local = 1.42432e-08, global = 3.82407e-22, cumulative = 1.29372e-19
DICPCG:  Solving for p, Initial residual = 0.00153189, Final residual = 9.58633e-07, No Iterations 206
time step continuity errors : sum local = 6.90129e-11, global = -2.50724e-20, cumulative = 1.043e-19
ExecutionTime = 7.5 s  ClockTime = 7 s

Time = 0.048125

Courant Number mean: 0.0247571 max: 0.567234
smoothSolver:  Solving for Ux, Initial residual = 0.00277678, Final residual = 7.64804e-06, No Iterations 2
smoothSolver:  Solving for Uy, Initial residual = 0.00334089, Final residual = 9.9709e-06, No Iterations 2
DICPCG:  Solving for p, Initial residual = 0.00416539, Final residual = 0.00019864, No Iterations 45
time step continuity errors : sum local = 1.43061e-08, global = -2.18926e-20, cumulative = 8.2407e-20
DICPCG:  Solving for p, Initial residual = 0.00150916, Final residual = 9.49574e-07, No Iterations 207
time step continuity errors : sum local = 6.84501e-11, global = 5.274e-22, cumulative = 8.29344e-20
ExecutionTime = 7.59 s  ClockTime = 7 s

Time = 0.04875

Courant Number mean: 0.0248836 max: 0.567636
smoothSolver:  Solving for Ux, Initial residual = 0.0027383, Final residual = 7.54485e-06, No Iterations 2
smoothSolver:  Solving for Uy, Initial residual = 0.00330293, Final residual = 9.85016e-06, No Iterations 2
DICPCG:  Solving for p, Initial residual = 0.00415829, Final residual = 0.000207439, No Iterations 44
time step continuity errors : sum local = 1.49573e-08, global = -9.14907e-22, cumulative = 8.20195e-20
DICPCG:  Solving for p, Initial residual = 0.00150909, Final residual = 9.86753e-07, No Iterations 206
time step continuity errors : sum local = 7.12129e-11, global = 1.847e-20, cumulative = 1.0049e-19
ExecutionTime = 7.68 s  ClockTime = 8 s

Time = 0.049375

Courant Number mean: 0.0250088 max: 0.568031
smoothSolver:  Solving for Ux, Initial residual = 0.00270117, Final residual = 7.44621e-06, No Iterations 2
smoothSolver:  Solving for Uy, Initial residual = 0.00326573, Final residual = 9.73204e-06, No Iterations 2
DICPCG:  Solving for p, Initial residual = 0.00398769, Final residual = 0.000193986, No Iterations 45
time step continuity errors : sum local = 1.40041e-08, global = 1.35006e-20, cumulative = 1.1399e-19
DICPCG:  Solving for p, Initial residual = 0.00148612, Final residual = 9.93825e-07, No Iterations 206
time step continuity errors : sum local = 7.18138e-11, global = 2.2722e-20, cumulative = 1.36712e-19
ExecutionTime = 7.78 s  ClockTime = 8 s

Time = 0.05

Courant Number mean: 0.025133 max: 0.568419
smoothSolver:  Solving for Ux, Initial residual = 0.00266519, Final residual = 7.35094e-06, No Iterations 2
smoothSolver:  Solving for Uy, Initial residual = 0.00322979, Final residual = 9.61754e-06, No Iterations 2
DICPCG:  Solving for p, Initial residual = 0.00396039, Final residual = 0.000191148, No Iterations 45
time step continuity errors : sum local = 1.38141e-08, global = 2.12619e-21, cumulative = 1.38838e-19
DICPCG:  Solving for p, Initial residual = 0.00148013, Final residual = 9.85215e-07, No Iterations 206
time step continuity errors : sum local = 7.1276e-11, global = 1.84396e-20, cumulative = 1.57278e-19
ExecutionTime = 7.87 s  ClockTime = 8 s

Time = 0.050625

Courant Number mean: 0.025256 max: 0.568801
smoothSolver:  Solving for Ux, Initial residual = 0.00263012, Final residual = 7.2575e-06, No Iterations 2
smoothSolver:  Solving for Uy, Initial residual = 0.00319488, Final residual = 9.50615e-06, No Iterations 2
DICPCG:  Solving for p, Initial residual = 0.00393892, Final residual = 0.000189419, No Iterations 45
time step continuity errors : sum local = 1.37053e-08, global = -3.72893e-20, cumulative = 1.19989e-19
DICPCG:  Solving for p, Initial residual = 0.00146944, Final residual = 9.79926e-07, No Iterations 206
time step continuity errors : sum local = 7.09794e-11, global = 1.37629e-20, cumulative = 1.33752e-19
ExecutionTime = 7.96 s  ClockTime = 8 s

Time = 0.05125

Courant Number mean: 0.0253779 max: 0.569177
smoothSolver:  Solving for Ux, Initial residual = 0.00259589, Final residual = 7.16601e-06, No Iterations 2
smoothSolver:  Solving for Uy, Initial residual = 0.00316078, Final residual = 9.39788e-06, No Iterations 2
DICPCG:  Solving for p, Initial residual = 0.00390891, Final residual = 0.000187647, No Iterations 45
time step continuity errors : sum local = 1.35931e-08, global = 1.35546e-20, cumulative = 1.47306e-19
DICPCG:  Solving for p, Initial residual = 0.00145848, Final residual = 9.63303e-07, No Iterations 206
time step continuity errors : sum local = 6.98606e-11, global = -3.59461e-21, cumulative = 1.43712e-19
ExecutionTime = 8.05 s  ClockTime = 8 s

Time = 0.051875

Courant Number mean: 0.0254987 max: 0.569546
smoothSolver:  Solving for Ux, Initial residual = 0.00256256, Final residual = 7.07632e-06, No Iterations 2
smoothSolver:  Solving for Uy, Initial residual = 0.00312766, Final residual = 9.29251e-06, No Iterations 2
DICPCG:  Solving for p, Initial residual = 0.00388202, Final residual = 0.000185819, No Iterations 45
time step continuity errors : sum local = 1.34765e-08, global = 1.37483e-20, cumulative = 1.5746e-19
DICPCG:  Solving for p, Initial residual = 0.00144945, Final residual = 9.58618e-07, No Iterations 206
time step continuity errors : sum local = 6.96026e-11, global = -1.59892e-20, cumulative = 1.41471e-19
ExecutionTime = 8.14 s  ClockTime = 8 s

Time = 0.0525

Courant Number mean: 0.0256184 max: 0.569908
smoothSolver:  Solving for Ux, Initial residual = 0.00253007, Final residual = 6.98843e-06, No Iterations 2
smoothSolver:  Solving for Uy, Initial residual = 0.00309547, Final residual = 9.18978e-06, No Iterations 2
DICPCG:  Solving for p, Initial residual = 0.00385553, Final residual = 0.000183922, No Iterations 45
time step continuity errors : sum local = 1.33545e-08, global = -3.05227e-20, cumulative = 1.10948e-19
DICPCG:  Solving for p, Initial residual = 0.00144098, Final residual = 9.36388e-07, No Iterations 206
time step continuity errors : sum local = 6.80692e-11, global = 1.23193e-20, cumulative = 1.23267e-19
ExecutionTime = 8.23 s  ClockTime = 8 s

Time = 0.053125

Courant Number mean: 0.0257368 max: 0.570263
smoothSolver:  Solving for Ux, Initial residual = 0.00249834, Final residual = 6.90229e-06, No Iterations 2
smoothSolver:  Solving for Uy, Initial residual = 0.00306409, Final residual = 9.09006e-06, No Iterations 2
DICPCG:  Solving for p, Initial residual = 0.0038215, Final residual = 0.000182121, No Iterations 45
time step continuity errors : sum local = 1.32389e-08, global = -6.54677e-21, cumulative = 1.1672e-19
DICPCG:  Solving for p, Initial residual = 0.00143117, Final residual = 9.34026e-07, No Iterations 206
time step continuity errors : sum local = 6.79767e-11, global = -2.81124e-20, cumulative = 8.8608e-20
ExecutionTime = 8.32 s  ClockTime = 8 s

Time = 0.05375

Courant Number mean: 0.0258541 max: 0.570612
smoothSolver:  Solving for Ux, Initial residual = 0.00246729, Final residual = 6.81779e-06, No Iterations 2
smoothSolver:  Solving for Uy, Initial residual = 0.00303355, Final residual = 8.99272e-06, No Iterations 2
DICPCG:  Solving for p, Initial residual = 0.0037911, Final residual = 0.000180343, No Iterations 45
time step continuity errors : sum local = 1.31246e-08, global = 3.62041e-20, cumulative = 1.24812e-19
DICPCG:  Solving for p, Initial residual = 0.00142298, Final residual = 9.18723e-07, No Iterations 206
time step continuity errors : sum local = 6.69401e-11, global = 7.26763e-21, cumulative = 1.3208e-19
ExecutionTime = 8.41 s  ClockTime = 8 s

Time = 0.054375

Courant Number mean: 0.0259703 max: 0.570955
smoothSolver:  Solving for Ux, Initial residual = 0.00243703, Final residual = 6.73501e-06, No Iterations 2
smoothSolver:  Solving for Uy, Initial residual = 0.00300387, Final residual = 8.89796e-06, No Iterations 2
DICPCG:  Solving for p, Initial residual = 0.00376252, Final residual = 0.000178844, No Iterations 45
time step continuity errors : sum local = 1.30296e-08, global = -1.64844e-20, cumulative = 1.15595e-19
DICPCG:  Solving for p, Initial residual = 0.00141483, Final residual = 9.14618e-07, No Iterations 206
time step continuity errors : sum local = 6.67121e-11, global = -5.18198e-21, cumulative = 1.10413e-19
ExecutionTime = 8.5 s  ClockTime = 8 s

Time = 0.055

Courant Number mean: 0.0260854 max: 0.571292
smoothSolver:  Solving for Ux, Initial residual = 0.00240753, Final residual = 6.65391e-06, No Iterations 2
smoothSolver:  Solving for Uy, Initial residual = 0.00297482, Final residual = 8.80572e-06, No Iterations 2
DICPCG:  Solving for p, Initial residual = 0.00373636, Final residual = 0.000177069, No Iterations 45
time step continuity errors : sum local = 1.29139e-08, global = 7.47282e-21, cumulative = 1.17886e-19
DICPCG:  Solving for p, Initial residual = 0.00140626, Final residual = 8.92978e-07, No Iterations 206
time step continuity errors : sum local = 6.52031e-11, global = 5.70506e-20, cumulative = 1.74937e-19
ExecutionTime = 8.59 s  ClockTime = 8 s

Time = 0.055625

Courant Number mean: 0.0261994 max: 0.571623
smoothSolver:  Solving for Ux, Initial residual = 0.00237868, Final residual = 6.57505e-06, No Iterations 2
smoothSolver:  Solving for Uy, Initial residual = 0.00294656, Final residual = 8.71568e-06, No Iterations 2
DICPCG:  Solving for p, Initial residual = 0.00371154, Final residual = 0.000175371, No Iterations 45
time step continuity errors : sum local = 1.28037e-08, global = 3.14901e-20, cumulative = 2.06427e-19
DICPCG:  Solving for p, Initial residual = 0.00139752, Final residual = 8.93457e-07, No Iterations 206
time step continuity errors : sum local = 6.53081e-11, global = -6.29296e-22, cumulative = 2.05798e-19
ExecutionTime = 8.68 s  ClockTime = 9 s

Time = 0.05625

Courant Number mean: 0.0263123 max: 0.571949
smoothSolver:  Solving for Ux, Initial residual = 0.00235043, Final residual = 6.49959e-06, No Iterations 2
smoothSolver:  Solving for Uy, Initial residual = 0.00291897, Final residual = 8.62796e-06, No Iterations 2
DICPCG:  Solving for p, Initial residual = 0.00370829, Final residual = 0.000174202, No Iterations 45
time step continuity errors : sum local = 1.2732e-08, global = 1.57688e-20, cumulative = 2.21566e-19
DICPCG:  Solving for p, Initial residual = 0.00138664, Final residual = 8.7425e-07, No Iterations 206
time step continuity errors : sum local = 6.39753e-11, global = 3.67906e-21, cumulative = 2.25245e-19
ExecutionTime = 8.77 s  ClockTime = 9 s

Time = 0.056875

Courant Number mean: 0.0264244 max: 0.572268
smoothSolver:  Solving for Ux, Initial residual = 0.00232287, Final residual = 6.42566e-06, No Iterations 2
smoothSolver:  Solving for Uy, Initial residual = 0.00289194, Final residual = 8.54219e-06, No Iterations 2
DICPCG:  Solving for p, Initial residual = 0.00369789, Final residual = 0.000183324, No Iterations 44
time step continuity errors : sum local = 1.34137e-08, global = 8.15451e-21, cumulative = 2.334e-19
DICPCG:  Solving for p, Initial residual = 0.00138647, Final residual = 8.78924e-07, No Iterations 206
time step continuity errors : sum local = 6.43851e-11, global = 4.4389e-20, cumulative = 2.77789e-19
ExecutionTime = 8.86 s  ClockTime = 9 s

Time = 0.0575

Courant Number mean: 0.0265353 max: 0.572582
smoothSolver:  Solving for Ux, Initial residual = 0.0022959, Final residual = 6.35331e-06, No Iterations 2
smoothSolver:  Solving for Uy, Initial residual = 0.00286561, Final residual = 8.45875e-06, No Iterations 2
DICPCG:  Solving for p, Initial residual = 0.00368063, Final residual = 0.000181127, No Iterations 44
time step continuity errors : sum local = 1.32681e-08, global = 1.1234e-20, cumulative = 2.89023e-19
DICPCG:  Solving for p, Initial residual = 0.00138093, Final residual = 8.69482e-07, No Iterations 206
time step continuity errors : sum local = 6.37629e-11, global = 3.93521e-20, cumulative = 3.28375e-19
ExecutionTime = 8.95 s  ClockTime = 9 s

Time = 0.058125

Courant Number mean: 0.0266454 max: 0.572891
smoothSolver:  Solving for Ux, Initial residual = 0.00226972, Final residual = 6.28276e-06, No Iterations 2
smoothSolver:  Solving for Uy, Initial residual = 0.00283993, Final residual = 8.37722e-06, No Iterations 2
DICPCG:  Solving for p, Initial residual = 0.00365574, Final residual = 0.000180506, No Iterations 44
time step continuity errors : sum local = 1.32368e-08, global = -1.16962e-20, cumulative = 3.16679e-19
DICPCG:  Solving for p, Initial residual = 0.00137522, Final residual = 9.98818e-07, No Iterations 205
time step continuity errors : sum local = 7.33327e-11, global = -5.23546e-21, cumulative = 3.11443e-19
ExecutionTime = 9.04 s  ClockTime = 9 s

Time = 0.05875

Courant Number mean: 0.0267545 max: 0.573195
smoothSolver:  Solving for Ux, Initial residual = 0.00224422, Final residual = 6.21371e-06, No Iterations 2
smoothSolver:  Solving for Uy, Initial residual = 0.00281473, Final residual = 8.29736e-06, No Iterations 2
DICPCG:  Solving for p, Initial residual = 0.00360498, Final residual = 0.000178832, No Iterations 44
time step continuity errors : sum local = 1.31279e-08, global = 2.05017e-20, cumulative = 3.31945e-19
DICPCG:  Solving for p, Initial residual = 0.00136503, Final residual = 9.97379e-07, No Iterations 205
time step continuity errors : sum local = 7.33034e-11, global = -8.2774e-21, cumulative = 3.23668e-19
ExecutionTime = 9.13 s  ClockTime = 9 s

Time = 0.059375

Courant Number mean: 0.0268627 max: 0.573495
smoothSolver:  Solving for Ux, Initial residual = 0.00221919, Final residual = 6.1459e-06, No Iterations 2
smoothSolver:  Solving for Uy, Initial residual = 0.00279012, Final residual = 8.21951e-06, No Iterations 2
DICPCG:  Solving for p, Initial residual = 0.00358401, Final residual = 0.000177632, No Iterations 44
time step continuity errors : sum local = 1.3053e-08, global = 2.58304e-20, cumulative = 3.49498e-19
DICPCG:  Solving for p, Initial residual = 0.00135642, Final residual = 9.85194e-07, No Iterations 205
time step continuity errors : sum local = 7.24796e-11, global = -1.34862e-20, cumulative = 3.36012e-19
ExecutionTime = 9.22 s  ClockTime = 9 s

Time = 0.06

Courant Number mean: 0.0269698 max: 0.573791
smoothSolver:  Solving for Ux, Initial residual = 0.00219476, Final residual = 6.07924e-06, No Iterations 2
smoothSolver:  Solving for Uy, Initial residual = 0.00276602, Final residual = 8.14331e-06, No Iterations 2
DICPCG:  Solving for p, Initial residual = 0.00356333, Final residual = 0.000176001, No Iterations 44
time step continuity errors : sum local = 1.29456e-08, global = -3.2629e-20, cumulative = 3.03383e-19
DICPCG:  Solving for p, Initial residual = 0.00134792, Final residual = 9.8056e-07, No Iterations 205
time step continuity errors : sum local = 7.22073e-11, global = 2.81552e-20, cumulative = 3.31538e-19
ExecutionTime = 9.31 s  ClockTime = 9 s

Time = 0.060625

Courant Number mean: 0.0270758 max: 0.574081
smoothSolver:  Solving for Ux, Initial residual = 0.00217084, Final residual = 6.01374e-06, No Iterations 2
smoothSolver:  Solving for Uy, Initial residual = 0.0027425, Final residual = 8.06905e-06, No Iterations 2
DICPCG:  Solving for p, Initial residual = 0.00357232, Final residual = 0.00017657, No Iterations 44
time step continuity errors : sum local = 1.29997e-08, global = -8.29572e-21, cumulative = 3.23242e-19
DICPCG:  Solving for p, Initial residual = 0.0013395, Final residual = 9.61535e-07, No Iterations 205
time step continuity errors : sum local = 7.08718e-11, global = -8.01747e-21, cumulative = 3.15225e-19
ExecutionTime = 9.4 s  ClockTime = 9 s

Time = 0.06125

Courant Number mean: 0.0271812 max: 0.574367
smoothSolver:  Solving for Ux, Initial residual = 0.00214741, Final residual = 5.94945e-06, No Iterations 2
smoothSolver:  Solving for Uy, Initial residual = 0.00271945, Final residual = 7.99615e-06, No Iterations 2
DICPCG:  Solving for p, Initial residual = 0.00355621, Final residual = 0.000175216, No Iterations 44
time step continuity errors : sum local = 1.29118e-08, global = 1.91237e-20, cumulative = 3.34349e-19
DICPCG:  Solving for p, Initial residual = 0.00133305, Final residual = 9.64158e-07, No Iterations 205
time step continuity errors : sum local = 7.11302e-11, global = 1.75421e-20, cumulative = 3.51891e-19
ExecutionTime = 9.49 s  ClockTime = 9 s

Time = 0.061875

Courant Number mean: 0.0272856 max: 0.574649
smoothSolver:  Solving for Ux, Initial residual = 0.00212456, Final residual = 5.88636e-06, No Iterations 2
smoothSolver:  Solving for Uy, Initial residual = 0.00269714, Final residual = 7.92533e-06, No Iterations 2
DICPCG:  Solving for p, Initial residual = 0.00351105, Final residual = 0.000171168, No Iterations 44
time step continuity errors : sum local = 1.26248e-08, global = 2.74743e-20, cumulative = 3.79365e-19
DICPCG:  Solving for p, Initial residual = 0.00132494, Final residual = 9.50137e-07, No Iterations 205
time step continuity errors : sum local = 7.01554e-11, global = 1.73336e-20, cumulative = 3.96699e-19
ExecutionTime = 9.58 s  ClockTime = 9 s

Time = 0.0625

Courant Number mean: 0.0273889 max: 0.574925
smoothSolver:  Solving for Ux, Initial residual = 0.0021023, Final residual = 5.82494e-06, No Iterations 2
smoothSolver:  Solving for Uy, Initial residual = 0.00267515, Final residual = 7.85558e-06, No Iterations 2
DICPCG:  Solving for p, Initial residual = 0.00354546, Final residual = 0.000169556, No Iterations 44
time step continuity errors : sum local = 1.25169e-08, global = -3.32993e-20, cumulative = 3.63399e-19
DICPCG:  Solving for p, Initial residual = 0.00131886, Final residual = 9.41685e-07, No Iterations 205
time step continuity errors : sum local = 6.95919e-11, global = -1.38007e-20, cumulative = 3.49599e-19
ExecutionTime = 9.67 s  ClockTime = 10 s

Time = 0.063125

Courant Number mean: 0.0274914 max: 0.575198
smoothSolver:  Solving for Ux, Initial residual = 0.00208055, Final residual = 5.76632e-06, No Iterations 2
smoothSolver:  Solving for Uy, Initial residual = 0.00265366, Final residual = 7.78739e-06, No Iterations 2
DICPCG:  Solving for p, Initial residual = 0.00346496, Final residual = 0.000169081, No Iterations 44
time step continuity errors : sum local = 1.24937e-08, global = 1.9904e-21, cumulative = 3.51589e-19
DICPCG:  Solving for p, Initial residual = 0.00131208, Final residual = 9.26652e-07, No Iterations 205
time step continuity errors : sum local = 6.85514e-11, global = -1.13586e-20, cumulative = 3.4023e-19
ExecutionTime = 9.76 s  ClockTime = 10 s

Time = 0.06375

Courant Number mean: 0.027593 max: 0.575466
smoothSolver:  Solving for Ux, Initial residual = 0.00205927, Final residual = 5.70923e-06, No Iterations 2
smoothSolver:  Solving for Uy, Initial residual = 0.00263261, Final residual = 7.72064e-06, No Iterations 2
DICPCG:  Solving for p, Initial residual = 0.00348835, Final residual = 0.000168289, No Iterations 44
time step continuity errors : sum local = 1.24466e-08, global = 3.3294e-20, cumulative = 3.73524e-19
DICPCG:  Solving for p, Initial residual = 0.00130453, Final residual = 9.92335e-07, No Iterations 204
time step continuity errors : sum local = 7.34641e-11, global = -1.69329e-20, cumulative = 3.56592e-19
ExecutionTime = 9.85 s  ClockTime = 10 s

Time = 0.064375

Courant Number mean: 0.027694 max: 0.575729
smoothSolver:  Solving for Ux, Initial residual = 0.00203838, Final residual = 5.65303e-06, No Iterations 2
smoothSolver:  Solving for Uy, Initial residual = 0.00261199, Final residual = 7.65509e-06, No Iterations 2
DICPCG:  Solving for p, Initial residual = 0.00348072, Final residual = 0.000169484, No Iterations 44
time step continuity errors : sum local = 1.25466e-08, global = 2.75987e-20, cumulative = 3.8419e-19
DICPCG:  Solving for p, Initial residual = 0.00129769, Final residual = 9.78053e-07, No Iterations 204
time step continuity errors : sum local = 7.24756e-11, global = 2.21296e-20, cumulative = 4.0632e-19
ExecutionTime = 9.94 s  ClockTime = 10 s

Time = 0.065

Courant Number mean: 0.0277947 max: 0.575989
smoothSolver:  Solving for Ux, Initial residual = 0.00201778, Final residual = 5.59732e-06, No Iterations 2
smoothSolver:  Solving for Uy, Initial residual = 0.00259181, Final residual = 7.59072e-06, No Iterations 2
DICPCG:  Solving for p, Initial residual = 0.00372456, Final residual = 0.000177369, No Iterations 43
time step continuity errors : sum local = 1.3143e-08, global = -6.83145e-20, cumulative = 3.38005e-19
DICPCG:  Solving for p, Initial residual = 0.0013003, Final residual = 9.99986e-07, No Iterations 204
time step continuity errors : sum local = 7.41575e-11, global = -3.18506e-20, cumulative = 3.06155e-19
ExecutionTime = 10.03 s  ClockTime = 10 s

Time = 0.065625

Courant Number mean: 0.0278948 max: 0.576244
smoothSolver:  Solving for Ux, Initial residual = 0.00199753, Final residual = 5.54207e-06, No Iterations 2
smoothSolver:  Solving for Uy, Initial residual = 0.00257223, Final residual = 7.52837e-06, No Iterations 2
DICPCG:  Solving for p, Initial residual = 0.00355464, Final residual = 0.000175015, No Iterations 43
time step continuity errors : sum local = 1.29815e-08, global = -2.24114e-20, cumulative = 2.83743e-19
DICPCG:  Solving for p, Initial residual = 0.00129864, Final residual = 9.67509e-07, No Iterations 204
time step continuity errors : sum local = 7.18161e-11, global = 1.0623e-20, cumulative = 2.94366e-19
ExecutionTime = 10.12 s  ClockTime = 10 s

Time = 0.06625

Courant Number mean: 0.0279942 max: 0.576496
smoothSolver:  Solving for Ux, Initial residual = 0.00197785, Final residual = 5.48799e-06, No Iterations 2
smoothSolver:  Solving for Uy, Initial residual = 0.0025527, Final residual = 7.4666e-06, No Iterations 2
DICPCG:  Solving for p, Initial residual = 0.00337301, Final residual = 0.000162476, No Iterations 44
time step continuity errors : sum local = 1.20634e-08, global = -3.62849e-20, cumulative = 2.58081e-19
DICPCG:  Solving for p, Initial residual = 0.00126874, Final residual = 9.71062e-07, No Iterations 204
time step continuity errors : sum local = 7.21642e-11, global = -1.61433e-20, cumulative = 2.41938e-19
ExecutionTime = 10.21 s  ClockTime = 10 s

Time = 0.066875

Courant Number mean: 0.0280931 max: 0.576743
smoothSolver:  Solving for Ux, Initial residual = 0.00195846, Final residual = 5.43502e-06, No Iterations 2
smoothSolver:  Solving for Uy, Initial residual = 0.00253369, Final residual = 7.40678e-06, No Iterations 2
DICPCG:  Solving for p, Initial residual = 0.00332756, Final residual = 0.000162173, No Iterations 44
time step continuity errors : sum local = 1.20523e-08, global = -2.10815e-20, cumulative = 2.20857e-19
DICPCG:  Solving for p, Initial residual = 0.00126889, Final residual = 9.53004e-07, No Iterations 204
time step continuity errors : sum local = 7.08932e-11, global = -1.66865e-20, cumulative = 2.0417e-19
ExecutionTime = 10.3 s  ClockTime = 10 s

Time = 0.0675

Courant Number mean: 0.0281913 max: 0.576986
smoothSolver:  Solving for Ux, Initial residual = 0.00193943, Final residual = 5.38271e-06, No Iterations 2
smoothSolver:  Solving for Uy, Initial residual = 0.00251505, Final residual = 7.34812e-06, No Iterations 2
DICPCG:  Solving for p, Initial residual = 0.00333598, Final residual = 0.000161178, No Iterations 44
time step continuity errors : sum local = 1.19898e-08, global = -4.55996e-20, cumulative = 1.58571e-19
DICPCG:  Solving for p, Initial residual = 0.00126155, Final residual = 9.55348e-07, No Iterations 204
time step continuity errors : sum local = 7.11315e-11, global = -1.25868e-22, cumulative = 1.58445e-19
ExecutionTime = 10.39 s  ClockTime = 10 s

Time = 0.068125

Courant Number mean: 0.0282891 max: 0.577226
smoothSolver:  Solving for Ux, Initial residual = 0.00192075, Final residual = 5.3312e-06, No Iterations 2
smoothSolver:  Solving for Uy, Initial residual = 0.00249681, Final residual = 7.29084e-06, No Iterations 2
DICPCG:  Solving for p, Initial residual = 0.00332352, Final residual = 0.00016063, No Iterations 44
time step continuity errors : sum local = 1.19599e-08, global = -8.91715e-21, cumulative = 1.49528e-19
[...]
time step continuity errors : sum local = 1.06619e-10, global = -1.95503e-20, cumulative = -1.06239e-17
ExecutionTime = 272.99 s  ClockTime = 277 s

Time = 2.98375

Courant Number mean: 0.0916616 max: 0.596031
smoothSolver:  Solving for Ux, Initial residual = 2.64849e-06, Final residual = 2.64849e-06, No Iterations 0
smoothSolver:  Solving for Uy, Initial residual = 2.85447e-06, Final residual = 2.85447e-06, No Iterations 0
DICPCG:  Solving for p, Initial residual = 2.11492e-06, Final residual = 8.80152e-07, No Iterations 15
time step continuity errors : sum local = 9.65092e-11, global = 6.59615e-20, cumulative = -1.0558e-17
DICPCG:  Solving for p, Initial residual = 1.16006e-06, Final residual = 8.82798e-07, No Iterations 6
time step continuity errors : sum local = 9.6751e-11, global = 7.13334e-20, cumulative = -1.04866e-17
ExecutionTime = 273.01 s  ClockTime = 277 s

Time = 2.98437

Courant Number mean: 0.091662 max: 0.596031
smoothSolver:  Solving for Ux, Initial residual = 2.64659e-06, Final residual = 2.64659e-06, No Iterations 0
smoothSolver:  Solving for Uy, Initial residual = 2.85122e-06, Final residual = 2.85122e-06, No Iterations 0
DICPCG:  Solving for p, Initial residual = 1.97896e-06, Final residual = 9.53715e-07, No Iterations 18
time step continuity errors : sum local = 1.03507e-10, global = 6.44772e-21, cumulative = -1.04802e-17
DICPCG:  Solving for p, Initial residual = 1.28471e-06, Final residual = 8.60617e-07, No Iterations 7
time step continuity errors : sum local = 9.48116e-11, global = -4.90694e-21, cumulative = -1.04851e-17
ExecutionTime = 273.02 s  ClockTime = 277 s

Time = 2.985

Courant Number mean: 0.0916623 max: 0.596031
smoothSolver:  Solving for Ux, Initial residual = 2.64369e-06, Final residual = 2.64369e-06, No Iterations 0
smoothSolver:  Solving for Uy, Initial residual = 2.84919e-06, Final residual = 2.84919e-06, No Iterations 0
DICPCG:  Solving for p, Initial residual = 1.94674e-06, Final residual = 9.42815e-07, No Iterations 11
time step continuity errors : sum local = 1.02558e-10, global = 2.61969e-20, cumulative = -1.04589e-17
DICPCG:  Solving for p, Initial residual = 1.28563e-06, Final residual = 9.56995e-07, No Iterations 10
time step continuity errors : sum local = 1.03862e-10, global = -1.11768e-20, cumulative = -1.04701e-17
ExecutionTime = 273.04 s  ClockTime = 277 s

Time = 2.98562

Courant Number mean: 0.0916626 max: 0.596031
smoothSolver:  Solving for Ux, Initial residual = 2.64085e-06, Final residual = 2.64085e-06, No Iterations 0
smoothSolver:  Solving for Uy, Initial residual = 2.84719e-06, Final residual = 2.84719e-06, No Iterations 0
DICPCG:  Solving for p, Initial residual = 2.01009e-06, Final residual = 9.85124e-07, No Iterations 12
time step continuity errors : sum local = 1.06683e-10, global = -6.60007e-21, cumulative = -1.04767e-17
DICPCG:  Solving for p, Initial residual = 1.30352e-06, Final residual = 9.6818e-07, No Iterations 15
time step continuity errors : sum local = 1.05054e-10, global = 1.10113e-20, cumulative = -1.04657e-17
ExecutionTime = 273.06 s  ClockTime = 277 s

Time = 2.98625

Courant Number mean: 0.091663 max: 0.596031
smoothSolver:  Solving for Ux, Initial residual = 2.63842e-06, Final residual = 2.63842e-06, No Iterations 0
smoothSolver:  Solving for Uy, Initial residual = 2.84492e-06, Final residual = 2.84492e-06, No Iterations 0
DICPCG:  Solving for p, Initial residual = 2.07854e-06, Final residual = 9.13155e-07, No Iterations 12
time step continuity errors : sum local = 9.99796e-11, global = -5.6207e-21, cumulative = -1.04713e-17
DICPCG:  Solving for p, Initial residual = 1.26367e-06, Final residual = 8.59772e-07, No Iterations 10
time step continuity errors : sum local = 9.50126e-11, global = 3.78424e-20, cumulative = -1.04334e-17
ExecutionTime = 273.07 s  ClockTime = 277 s

Time = 2.98687

Courant Number mean: 0.0916633 max: 0.596031
smoothSolver:  Solving for Ux, Initial residual = 2.63644e-06, Final residual = 2.63644e-06, No Iterations 0
smoothSolver:  Solving for Uy, Initial residual = 2.84139e-06, Final residual = 2.84139e-06, No Iterations 0
DICPCG:  Solving for p, Initial residual = 1.9918e-06, Final residual = 9.10772e-07, No Iterations 14
time step continuity errors : sum local = 9.98288e-11, global = -5.26332e-20, cumulative = -1.04861e-17
DICPCG:  Solving for p, Initial residual = 1.23425e-06, Final residual = 8.70973e-07, No Iterations 11
time step continuity errors : sum local = 9.61136e-11, global = 7.04583e-20, cumulative = -1.04156e-17
ExecutionTime = 273.09 s  ClockTime = 277 s

Time = 2.9875

Courant Number mean: 0.0916637 max: 0.596031
smoothSolver:  Solving for Ux, Initial residual = 2.63402e-06, Final residual = 2.63402e-06, No Iterations 0
smoothSolver:  Solving for Uy, Initial residual = 2.83868e-06, Final residual = 2.83868e-06, No Iterations 0
DICPCG:  Solving for p, Initial residual = 1.83852e-06, Final residual = 7.6498e-07, No Iterations 11
time step continuity errors : sum local = 8.62194e-11, global = -4.54385e-20, cumulative = -1.04611e-17
DICPCG:  Solving for p, Initial residual = 1.116e-06, Final residual = 9.18636e-07, No Iterations 13
time step continuity errors : sum local = 1.00553e-10, global = -1.63847e-20, cumulative = -1.04774e-17
ExecutionTime = 273.1 s  ClockTime = 277 s

Time = 2.98812

Courant Number mean: 0.091664 max: 0.596031
smoothSolver:  Solving for Ux, Initial residual = 2.63114e-06, Final residual = 2.63114e-06, No Iterations 0
smoothSolver:  Solving for Uy, Initial residual = 2.83689e-06, Final residual = 2.83689e-06, No Iterations 0
DICPCG:  Solving for p, Initial residual = 1.93429e-06, Final residual = 9.24328e-07, No Iterations 10
time step continuity errors : sum local = 1.0121e-10, global = 1.82024e-20, cumulative = -1.04592e-17
DICPCG:  Solving for p, Initial residual = 1.23686e-06, Final residual = 9.35158e-07, No Iterations 9
time step continuity errors : sum local = 1.0216e-10, global = 6.48439e-20, cumulative = -1.03944e-17
ExecutionTime = 273.12 s  ClockTime = 277 s

Time = 2.98875

Courant Number mean: 0.0916644 max: 0.596031
smoothSolver:  Solving for Ux, Initial residual = 2.62907e-06, Final residual = 2.62907e-06, No Iterations 0
smoothSolver:  Solving for Uy, Initial residual = 2.83367e-06, Final residual = 2.83367e-06, No Iterations 0
DICPCG:  Solving for p, Initial residual = 2.19838e-06, Final residual = 9.14797e-07, No Iterations 14
time step continuity errors : sum local = 1.00284e-10, global = 4.36992e-20, cumulative = -1.03507e-17
DICPCG:  Solving for p, Initial residual = 1.21127e-06, Final residual = 9.2126e-07, No Iterations 11
time step continuity errors : sum local = 1.00841e-10, global = -7.47281e-20, cumulative = -1.04254e-17
ExecutionTime = 273.14 s  ClockTime = 277 s

Time = 2.98937

Courant Number mean: 0.0916647 max: 0.596031
smoothSolver:  Solving for Ux, Initial residual = 2.62666e-06, Final residual = 2.62666e-06, No Iterations 0
smoothSolver:  Solving for Uy, Initial residual = 2.83093e-06, Final residual = 2.83093e-06, No Iterations 0
DICPCG:  Solving for p, Initial residual = 1.9792e-06, Final residual = 9.85383e-07, No Iterations 11
time step continuity errors : sum local = 1.06804e-10, global = 6.83447e-21, cumulative = -1.04186e-17
DICPCG:  Solving for p, Initial residual = 1.32022e-06, Final residual = 9.35128e-07, No Iterations 10
time step continuity errors : sum local = 1.02135e-10, global = -1.36699e-20, cumulative = -1.04323e-17
ExecutionTime = 273.15 s  ClockTime = 277 s

Time = 2.99

Courant Number mean: 0.0916651 max: 0.596031
smoothSolver:  Solving for Ux, Initial residual = 2.62417e-06, Final residual = 2.62417e-06, No Iterations 0
smoothSolver:  Solving for Uy, Initial residual = 2.8283e-06, Final residual = 2.8283e-06, No Iterations 0
DICPCG:  Solving for p, Initial residual = 2.07665e-06, Final residual = 9.91083e-07, No Iterations 16
time step continuity errors : sum local = 1.07403e-10, global = 6.44823e-20, cumulative = -1.03678e-17
DICPCG:  Solving for p, Initial residual = 1.2885e-06, Final residual = 8.96726e-07, No Iterations 12
time step continuity errors : sum local = 9.84971e-11, global = -4.19423e-20, cumulative = -1.04097e-17
ExecutionTime = 273.17 s  ClockTime = 277 s

Time = 2.99062

Courant Number mean: 0.0916654 max: 0.596031
smoothSolver:  Solving for Ux, Initial residual = 2.62166e-06, Final residual = 2.62166e-06, No Iterations 0
smoothSolver:  Solving for Uy, Initial residual = 2.82587e-06, Final residual = 2.82587e-06, No Iterations 0
DICPCG:  Solving for p, Initial residual = 1.96229e-06, Final residual = 7.61623e-07, No Iterations 12
time step continuity errors : sum local = 8.59326e-11, global = 5.17678e-20, cumulative = -1.03579e-17
DICPCG:  Solving for p, Initial residual = 1.06511e-06, Final residual = 9.82478e-07, No Iterations 10
time step continuity errors : sum local = 1.06505e-10, global = 4.61984e-20, cumulative = -1.03117e-17
ExecutionTime = 273.18 s  ClockTime = 277 s

Time = 2.99125

Courant Number mean: 0.0916658 max: 0.596031
smoothSolver:  Solving for Ux, Initial residual = 2.61933e-06, Final residual = 2.61933e-06, No Iterations 0
smoothSolver:  Solving for Uy, Initial residual = 2.82316e-06, Final residual = 2.82316e-06, No Iterations 0
DICPCG:  Solving for p, Initial residual = 2.10285e-06, Final residual = 8.76278e-07, No Iterations 15
time step continuity errors : sum local = 9.66531e-11, global = -6.29905e-20, cumulative = -1.03747e-17
DICPCG:  Solving for p, Initial residual = 1.18519e-06, Final residual = 9.86953e-07, No Iterations 6
time step continuity errors : sum local = 1.07041e-10, global = -2.72877e-20, cumulative = -1.0402e-17
ExecutionTime = 273.2 s  ClockTime = 277 s

Time = 2.99187

Courant Number mean: 0.0916661 max: 0.596031
smoothSolver:  Solving for Ux, Initial residual = 2.6175e-06, Final residual = 2.6175e-06, No Iterations 0
smoothSolver:  Solving for Uy, Initial residual = 2.81987e-06, Final residual = 2.81987e-06, No Iterations 0
DICPCG:  Solving for p, Initial residual = 2.16049e-06, Final residual = 9.9025e-07, No Iterations 18
time step continuity errors : sum local = 1.07363e-10, global = 3.90345e-20, cumulative = -1.0363e-17
DICPCG:  Solving for p, Initial residual = 1.36816e-06, Final residual = 9.33666e-07, No Iterations 8
time step continuity errors : sum local = 1.02001e-10, global = 1.94839e-20, cumulative = -1.03435e-17
ExecutionTime = 273.21 s  ClockTime = 277 s

Time = 2.9925

Courant Number mean: 0.0916665 max: 0.596031
smoothSolver:  Solving for Ux, Initial residual = 2.61441e-06, Final residual = 2.61441e-06, No Iterations 0
smoothSolver:  Solving for Uy, Initial residual = 2.81795e-06, Final residual = 2.81795e-06, No Iterations 0
DICPCG:  Solving for p, Initial residual = 2.03094e-06, Final residual = 8.88477e-07, No Iterations 13
time step continuity errors : sum local = 9.78482e-11, global = 2.20443e-20, cumulative = -1.03215e-17
DICPCG:  Solving for p, Initial residual = 1.23676e-06, Final residual = 9.96955e-07, No Iterations 14
time step continuity errors : sum local = 1.08028e-10, global = -5.04697e-20, cumulative = -1.03719e-17
ExecutionTime = 273.23 s  ClockTime = 277 s

Time = 2.99312

Courant Number mean: 0.0916668 max: 0.596031
smoothSolver:  Solving for Ux, Initial residual = 2.61166e-06, Final residual = 2.61166e-06, No Iterations 0
smoothSolver:  Solving for Uy, Initial residual = 2.81612e-06, Final residual = 2.81612e-06, No Iterations 0
DICPCG:  Solving for p, Initial residual = 2.14055e-06, Final residual = 8.2912e-07, No Iterations 11
time step continuity errors : sum local = 9.23073e-11, global = 9.12456e-21, cumulative = -1.03628e-17
DICPCG:  Solving for p, Initial residual = 1.14305e-06, Final residual = 7.60165e-07, No Iterations 10
time step continuity errors : sum local = 8.58779e-11, global = -5.90162e-20, cumulative = -1.04218e-17
ExecutionTime = 273.24 s  ClockTime = 277 s

Time = 2.99375

Courant Number mean: 0.0916671 max: 0.596032
smoothSolver:  Solving for Ux, Initial residual = 2.60973e-06, Final residual = 2.60973e-06, No Iterations 0
smoothSolver:  Solving for Uy, Initial residual = 2.81276e-06, Final residual = 2.81276e-06, No Iterations 0
DICPCG:  Solving for p, Initial residual = 1.78676e-06, Final residual = 9.77918e-07, No Iterations 12
time step continuity errors : sum local = 1.06321e-10, global = 6.33273e-20, cumulative = -1.03585e-17
DICPCG:  Solving for p, Initial residual = 1.25268e-06, Final residual = 9.40066e-07, No Iterations 10
time step continuity errors : sum local = 1.02765e-10, global = -4.479e-20, cumulative = -1.04033e-17
ExecutionTime = 273.26 s  ClockTime = 277 s

Time = 2.99437

Courant Number mean: 0.0916675 max: 0.596032
smoothSolver:  Solving for Ux, Initial residual = 2.60714e-06, Final residual = 2.60714e-06, No Iterations 0
smoothSolver:  Solving for Uy, Initial residual = 2.81025e-06, Final residual = 2.81025e-06, No Iterations 0
DICPCG:  Solving for p, Initial residual = 1.92887e-06, Final residual = 9.18038e-07, No Iterations 14
time step continuity errors : sum local = 1.00737e-10, global = -3.65135e-21, cumulative = -1.04069e-17
DICPCG:  Solving for p, Initial residual = 1.26605e-06, Final residual = 9.82509e-07, No Iterations 13
time step continuity errors : sum local = 1.0676e-10, global = -4.10109e-20, cumulative = -1.04479e-17
ExecutionTime = 273.28 s  ClockTime = 277 s

Time = 2.995

Courant Number mean: 0.0916678 max: 0.596032
smoothSolver:  Solving for Ux, Initial residual = 2.60491e-06, Final residual = 2.60491e-06, No Iterations 0
smoothSolver:  Solving for Uy, Initial residual = 2.8078e-06, Final residual = 2.8078e-06, No Iterations 0
DICPCG:  Solving for p, Initial residual = 2.11744e-06, Final residual = 8.68177e-07, No Iterations 12
time step continuity errors : sum local = 9.60946e-11, global = -4.2351e-20, cumulative = -1.04903e-17
DICPCG:  Solving for p, Initial residual = 1.10469e-06, Final residual = 9.67019e-07, No Iterations 10
time step continuity errors : sum local = 1.05291e-10, global = 9.24673e-20, cumulative = -1.03978e-17
ExecutionTime = 273.29 s  ClockTime = 277 s

Time = 2.99562

Courant Number mean: 0.0916682 max: 0.596032
smoothSolver:  Solving for Ux, Initial residual = 2.60244e-06, Final residual = 2.60244e-06, No Iterations 0
smoothSolver:  Solving for Uy, Initial residual = 2.80537e-06, Final residual = 2.80537e-06, No Iterations 0
DICPCG:  Solving for p, Initial residual = 2.18847e-06, Final residual = 9.08595e-07, No Iterations 12
time step continuity errors : sum local = 9.98915e-11, global = 3.49185e-20, cumulative = -1.03629e-17
DICPCG:  Solving for p, Initial residual = 1.22018e-06, Final residual = 9.06549e-07, No Iterations 10
time step continuity errors : sum local = 9.9585e-11, global = -1.35812e-20, cumulative = -1.03765e-17
ExecutionTime = 273.31 s  ClockTime = 277 s

Time = 2.99625

Courant Number mean: 0.0916685 max: 0.596032
smoothSolver:  Solving for Ux, Initial residual = 2.60012e-06, Final residual = 2.60012e-06, No Iterations 0
smoothSolver:  Solving for Uy, Initial residual = 2.8024e-06, Final residual = 2.8024e-06, No Iterations 0
DICPCG:  Solving for p, Initial residual = 1.99311e-06, Final residual = 9.63715e-07, No Iterations 10
time step continuity errors : sum local = 1.05062e-10, global = 1.8718e-20, cumulative = -1.03578e-17
DICPCG:  Solving for p, Initial residual = 1.32118e-06, Final residual = 9.92826e-07, No Iterations 13
time step continuity errors : sum local = 1.07675e-10, global = 7.50863e-21, cumulative = -1.03503e-17
ExecutionTime = 273.32 s  ClockTime = 277 s

Time = 2.99687

Courant Number mean: 0.0916689 max: 0.596032
smoothSolver:  Solving for Ux, Initial residual = 2.5974e-06, Final residual = 2.5974e-06, No Iterations 0
smoothSolver:  Solving for Uy, Initial residual = 2.80063e-06, Final residual = 2.80063e-06, No Iterations 0
DICPCG:  Solving for p, Initial residual = 2.22132e-06, Final residual = 9.14634e-07, No Iterations 10
time step continuity errors : sum local = 1.00332e-10, global = -2.90844e-20, cumulative = -1.03794e-17
DICPCG:  Solving for p, Initial residual = 1.25618e-06, Final residual = 9.73868e-07, No Iterations 9
time step continuity errors : sum local = 1.05866e-10, global = 9.92777e-20, cumulative = -1.02801e-17
ExecutionTime = 273.34 s  ClockTime = 277 s

Time = 2.9975

Courant Number mean: 0.0916692 max: 0.596032
smoothSolver:  Solving for Ux, Initial residual = 2.59539e-06, Final residual = 2.59539e-06, No Iterations 0
smoothSolver:  Solving for Uy, Initial residual = 2.79729e-06, Final residual = 2.79729e-06, No Iterations 0
DICPCG:  Solving for p, Initial residual = 2.22559e-06, Final residual = 8.69248e-07, No Iterations 14
time step continuity errors : sum local = 9.60619e-11, global = -6.63342e-20, cumulative = -1.03464e-17
DICPCG:  Solving for p, Initial residual = 1.15709e-06, Final residual = 8.82081e-07, No Iterations 11
time step continuity errors : sum local = 9.72304e-11, global = -2.3789e-20, cumulative = -1.03702e-17
ExecutionTime = 273.35 s  ClockTime = 277 s

Time = 2.99812

Courant Number mean: 0.0916696 max: 0.596032
smoothSolver:  Solving for Ux, Initial residual = 2.59279e-06, Final residual = 2.59279e-06, No Iterations 0
smoothSolver:  Solving for Uy, Initial residual = 2.79476e-06, Final residual = 2.79476e-06, No Iterations 0
DICPCG:  Solving for p, Initial residual = 1.84731e-06, Final residual = 8.59097e-07, No Iterations 11
time step continuity errors : sum local = 9.50693e-11, global = 4.10094e-20, cumulative = -1.03292e-17
DICPCG:  Solving for p, Initial residual = 1.19412e-06, Final residual = 8.54945e-07, No Iterations 10
time step continuity errors : sum local = 9.47347e-11, global = 5.91165e-20, cumulative = -1.02701e-17
ExecutionTime = 273.37 s  ClockTime = 277 s

Time = 2.99875

Courant Number mean: 0.0916699 max: 0.596032
smoothSolver:  Solving for Ux, Initial residual = 2.59048e-06, Final residual = 2.59048e-06, No Iterations 0
smoothSolver:  Solving for Uy, Initial residual = 2.79213e-06, Final residual = 2.79213e-06, No Iterations 0
DICPCG:  Solving for p, Initial residual = 1.93587e-06, Final residual = 9.52719e-07, No Iterations 16
time step continuity errors : sum local = 1.03948e-10, global = 8.30503e-20, cumulative = -1.0187e-17
DICPCG:  Solving for p, Initial residual = 1.22642e-06, Final residual = 9.47085e-07, No Iterations 12
time step continuity errors : sum local = 1.0342e-10, global = -2.43918e-20, cumulative = -1.02114e-17
ExecutionTime = 273.39 s  ClockTime = 277 s

Time = 2.99937

Courant Number mean: 0.0916702 max: 0.596032
smoothSolver:  Solving for Ux, Initial residual = 2.58802e-06, Final residual = 2.58802e-06, No Iterations 0
smoothSolver:  Solving for Uy, Initial residual = 2.7898e-06, Final residual = 2.7898e-06, No Iterations 0
DICPCG:  Solving for p, Initial residual = 1.98362e-06, Final residual = 9.73785e-07, No Iterations 11
time step continuity errors : sum local = 1.0601e-10, global = -3.42441e-20, cumulative = -1.02457e-17
DICPCG:  Solving for p, Initial residual = 1.25919e-06, Final residual = 9.66782e-07, No Iterations 11
time step continuity errors : sum local = 1.05317e-10, global = 1.20481e-20, cumulative = -1.02336e-17
ExecutionTime = 273.4 s  ClockTime = 277 s

Time = 3

Courant Number mean: 0.0916706 max: 0.596032
smoothSolver:  Solving for Ux, Initial residual = 2.58568e-06, Final residual = 2.58568e-06, No Iterations 0
smoothSolver:  Solving for Uy, Initial residual = 2.78736e-06, Final residual = 2.78736e-06, No Iterations 0
DICPCG:  Solving for p, Initial residual = 1.79742e-06, Final residual = 8.80376e-07, No Iterations 13
time step continuity errors : sum local = 9.73444e-11, global = -1.10792e-21, cumulative = -1.02347e-17
DICPCG:  Solving for p, Initial residual = 1.1974e-06, Final residual = 9.69854e-07, No Iterations 10
time step continuity errors : sum local = 1.05666e-10, global = -3.35042e-20, cumulative = -1.02682e-17
ExecutionTime = 273.48 s  ClockTime = 277 s

End

