/*---------------------------------------------------------------------------*\
  =========                 |
  \\      /  F ield         | OpenFOAM: The Open Source CFD Toolbox
   \\    /   O peration     | Website:  https://openfoam.org
    \\  /    A nd           | Version:  7
     \\/     M anipulation  |
\*---------------------------------------------------------------------------*/
Build  : 7
Exec   : icoFoam
Date   : Feb 11 2025
Time   : 00:30:00
Host   : "c209-017.frontera.tacc.utexas.edu"
PID    : 188723
I/O    : uncollated
Case   : /work2/10249/ctshep3141/frontera/coe347/COE-347-Open-Foam/of-project-1/extracred/Re-100-AR-half
nProcs : 1
sigFpe : Enabling floating point exception trapping (FOAM_SIGFPE).
fileModificationChecking : Monitoring run-time modified files using timeStampMaster (fileModificationSkew 10)
allowSystemOperations : Allowing user-supplied system call operations

// * * * * * * * * * * * * * * * * * * * * * * * * * * * * * * * * * * * * * //
Create time

Create mesh for time = 0

Reading transportProperties

Reading field p

Reading field U

Reading/calculating face flux field phi


Starting time loop

Time = 0.000625

Courant Number mean: 0 max: 0
smoothSolver:  Solving for Ux, Initial residual = 1, Final residual = 3.42957e-06, No Iterations 9
smoothSolver:  Solving for Uy, Initial residual = 0, Final residual = 0, No Iterations 0
DICPCG:  Solving for p, Initial residual = 1, Final residual = 0.0464844, No Iterations 91
time step continuity errors : sum local = 1.96516e-06, global = -6.03842e-21, cumulative = -6.03842e-21
DICPCG:  Solving for p, Initial residual = 0.446222, Final residual = 9.17734e-07, No Iterations 250
time step continuity errors : sum local = 6.75184e-11, global = 2.5319e-21, cumulative = -3.50652e-21
ExecutionTime = 0.24 s  ClockTime = 0 s

Time = 0.00125

Courant Number mean: 0.00500127 max: 0.285436
smoothSolver:  Solving for Ux, Initial residual = 0.241189, Final residual = 9.48215e-06, No Iterations 8
smoothSolver:  Solving for Uy, Initial residual = 0.31939, Final residual = 6.73017e-06, No Iterations 9
DICPCG:  Solving for p, Initial residual = 0.263579, Final residual = 0.0120892, No Iterations 89
time step continuity errors : sum local = 9.30396e-07, global = 1.70218e-21, cumulative = -1.80434e-21
DICPCG:  Solving for p, Initial residual = 0.163461, Final residual = 9.70271e-07, No Iterations 244
time step continuity errors : sum local = 7.70479e-11, global = 1.70415e-21, cumulative = -1.0019e-22
ExecutionTime = 0.37 s  ClockTime = 0 s

Time = 0.001875

Courant Number mean: 0.00813258 max: 0.404237
smoothSolver:  Solving for Ux, Initial residual = 0.114378, Final residual = 4.96026e-06, No Iterations 8
smoothSolver:  Solving for Uy, Initial residual = 0.154784, Final residual = 3.36937e-06, No Iterations 9
DICPCG:  Solving for p, Initial residual = 0.116603, Final residual = 0.00538464, No Iterations 89
time step continuity errors : sum local = 4.55356e-07, global = -1.11253e-20, cumulative = -1.12255e-20
DICPCG:  Solving for p, Initial residual = 0.0753786, Final residual = 9.65472e-07, No Iterations 240
time step continuity errors : sum local = 7.77383e-11, global = -8.19284e-21, cumulative = -1.94184e-20
ExecutionTime = 0.49 s  ClockTime = 0 s

Time = 0.0025

Courant Number mean: 0.0103575 max: 0.459418
smoothSolver:  Solving for Ux, Initial residual = 0.0710107, Final residual = 3.37542e-06, No Iterations 8
smoothSolver:  Solving for Uy, Initial residual = 0.0951286, Final residual = 6.92352e-06, No Iterations 8
DICPCG:  Solving for p, Initial residual = 0.0671913, Final residual = 0.00307296, No Iterations 185
time step continuity errors : sum local = 2.47741e-07, global = -1.54657e-20, cumulative = -3.48841e-20
DICPCG:  Solving for p, Initial residual = 0.0416124, Final residual = 9.36266e-07, No Iterations 235
time step continuity errors : sum local = 7.76072e-11, global = -2.36096e-20, cumulative = -5.84937e-20
ExecutionTime = 0.65 s  ClockTime = 1 s

Time = 0.003125

Courant Number mean: 0.012117 max: 0.488833
smoothSolver:  Solving for Ux, Initial residual = 0.0507071, Final residual = 8.62768e-06, No Iterations 7
smoothSolver:  Solving for Uy, Initial residual = 0.0674564, Final residual = 4.99174e-06, No Iterations 8
DICPCG:  Solving for p, Initial residual = 0.0434257, Final residual = 0.0020389, No Iterations 80
time step continuity errors : sum local = 1.69687e-07, global = -1.1862e-20, cumulative = -7.03557e-20
DICPCG:  Solving for p, Initial residual = 0.0273897, Final residual = 9.87012e-07, No Iterations 233
time step continuity errors : sum local = 8.31512e-11, global = 1.11318e-20, cumulative = -5.92238e-20
ExecutionTime = 0.76 s  ClockTime = 1 s

Time = 0.00375

Courant Number mean: 0.0135876 max: 0.506684
smoothSolver:  Solving for Ux, Initial residual = 0.039495, Final residual = 7.06576e-06, No Iterations 7
smoothSolver:  Solving for Uy, Initial residual = 0.0521561, Final residual = 3.90464e-06, No Iterations 8
DICPCG:  Solving for p, Initial residual = 0.0328301, Final residual = 0.00162775, No Iterations 77
time step continuity errors : sum local = 1.39634e-07, global = -2.72807e-20, cumulative = -8.65046e-20
DICPCG:  Solving for p, Initial residual = 0.0206946, Final residual = 8.62047e-07, No Iterations 232
time step continuity errors : sum local = 7.38946e-11, global = -2.32045e-20, cumulative = -1.09709e-19
ExecutionTime = 0.88 s  ClockTime = 1 s

Time = 0.004375

Courant Number mean: 0.0148644 max: 0.518725
smoothSolver:  Solving for Ux, Initial residual = 0.0324251, Final residual = 6.02445e-06, No Iterations 7
smoothSolver:  Solving for Uy, Initial residual = 0.0424528, Final residual = 3.20542e-06, No Iterations 8
DICPCG:  Solving for p, Initial residual = 0.0260871, Final residual = 0.00130137, No Iterations 75
time step continuity errors : sum local = 1.12273e-07, global = -3.32054e-20, cumulative = -1.42914e-19
DICPCG:  Solving for p, Initial residual = 0.0166376, Final residual = 9.05046e-07, No Iterations 230
time step continuity errors : sum local = 7.85719e-11, global = -3.03266e-21, cumulative = -1.45947e-19
ExecutionTime = 0.99 s  ClockTime = 1 s

Time = 0.005

Courant Number mean: 0.0160095 max: 0.527506
smoothSolver:  Solving for Ux, Initial residual = 0.0275514, Final residual = 5.27129e-06, No Iterations 7
smoothSolver:  Solving for Uy, Initial residual = 0.0358098, Final residual = 8.90091e-06, No Iterations 7
DICPCG:  Solving for p, Initial residual = 0.0219117, Final residual = 0.00105998, No Iterations 74
time step continuity errors : sum local = 9.35255e-08, global = -4.16111e-21, cumulative = -1.50108e-19
DICPCG:  Solving for p, Initial residual = 0.0143034, Final residual = 8.73513e-07, No Iterations 229
time step continuity errors : sum local = 7.65912e-11, global = 6.25542e-21, cumulative = -1.43853e-19
ExecutionTime = 1.1 s  ClockTime = 1 s

Time = 0.005625

Courant Number mean: 0.0170458 max: 0.534277
smoothSolver:  Solving for Ux, Initial residual = 0.0239527, Final residual = 4.69686e-06, No Iterations 7
smoothSolver:  Solving for Uy, Initial residual = 0.030955, Final residual = 7.73122e-06, No Iterations 7
DICPCG:  Solving for p, Initial residual = 0.0188577, Final residual = 0.000884461, No Iterations 73
time step continuity errors : sum local = 7.78133e-08, global = 3.23976e-20, cumulative = -1.11455e-19
DICPCG:  Solving for p, Initial residual = 0.0123391, Final residual = 8.84883e-07, No Iterations 228
time step continuity errors : sum local = 7.82142e-11, global = 3.48193e-21, cumulative = -1.07973e-19
ExecutionTime = 1.22 s  ClockTime = 1 s

Time = 0.00625

Courant Number mean: 0.0179925 max: 0.539709
smoothSolver:  Solving for Ux, Initial residual = 0.0211979, Final residual = 4.23733e-06, No Iterations 7
smoothSolver:  Solving for Uy, Initial residual = 0.0272631, Final residual = 6.83616e-06, No Iterations 7
DICPCG:  Solving for p, Initial residual = 0.0165181, Final residual = 0.000789327, No Iterations 72
time step continuity errors : sum local = 7.09667e-08, global = -3.94012e-20, cumulative = -1.47375e-19
DICPCG:  Solving for p, Initial residual = 0.010913, Final residual = 8.92194e-07, No Iterations 227
time step continuity errors : sum local = 7.93915e-11, global = -1.78015e-20, cumulative = -1.65176e-19
ExecutionTime = 1.33 s  ClockTime = 1 s

Time = 0.006875

Courant Number mean: 0.0188771 max: 0.544195
smoothSolver:  Solving for Ux, Initial residual = 0.0190186, Final residual = 3.86676e-06, No Iterations 7
smoothSolver:  Solving for Uy, Initial residual = 0.0243445, Final residual = 6.12378e-06, No Iterations 7
DICPCG:  Solving for p, Initial residual = 0.0147837, Final residual = 0.00069823, No Iterations 71
time step continuity errors : sum local = 6.25796e-08, global = 2.11759e-20, cumulative = -1.44e-19
DICPCG:  Solving for p, Initial residual = 0.00981199, Final residual = 9.07934e-07, No Iterations 226
time step continuity errors : sum local = 8.12753e-11, global = -7.33234e-21, cumulative = -1.51333e-19
ExecutionTime = 1.45 s  ClockTime = 1 s

Time = 0.0075

Courant Number mean: 0.0197036 max: 0.547982
smoothSolver:  Solving for Ux, Initial residual = 0.0172265, Final residual = 3.55479e-06, No Iterations 7
smoothSolver:  Solving for Uy, Initial residual = 0.0219935, Final residual = 5.54772e-06, No Iterations 7
DICPCG:  Solving for p, Initial residual = 0.0133428, Final residual = 0.000639783, No Iterations 70
time step continuity errors : sum local = 5.85113e-08, global = -8.47066e-21, cumulative = -1.59803e-19
DICPCG:  Solving for p, Initial residual = 0.00889837, Final residual = 9.10174e-07, No Iterations 225
time step continuity errors : sum local = 8.18766e-11, global = -2.68799e-20, cumulative = -1.86683e-19
ExecutionTime = 1.55 s  ClockTime = 2 s

Time = 0.008125

Courant Number mean: 0.0204775 max: 0.551238
smoothSolver:  Solving for Ux, Initial residual = 0.0157561, Final residual = 3.29058e-06, No Iterations 7
smoothSolver:  Solving for Uy, Initial residual = 0.0200424, Final residual = 5.06696e-06, No Iterations 7
DICPCG:  Solving for p, Initial residual = 0.0122172, Final residual = 0.000590364, No Iterations 69
time step continuity errors : sum local = 5.39184e-08, global = 2.45547e-20, cumulative = -1.62128e-19
DICPCG:  Solving for p, Initial residual = 0.00818471, Final residual = 9.18652e-07, No Iterations 224
time step continuity errors : sum local = 8.30191e-11, global = -1.6048e-20, cumulative = -1.78176e-19
ExecutionTime = 1.66 s  ClockTime = 2 s

Time = 0.00875

Courant Number mean: 0.0212042 max: 0.554075
smoothSolver:  Solving for Ux, Initial residual = 0.0145019, Final residual = 3.06256e-06, No Iterations 7
smoothSolver:  Solving for Uy, Initial residual = 0.0184165, Final residual = 4.66541e-06, No Iterations 7
DICPCG:  Solving for p, Initial residual = 0.0112418, Final residual = 0.000525692, No Iterations 69
time step continuity errors : sum local = 4.91638e-08, global = -2.454e-20, cumulative = -2.02716e-19
DICPCG:  Solving for p, Initial residual = 0.00761716, Final residual = 9.50652e-07, No Iterations 223
time step continuity errors : sum local = 8.62233e-11, global = 1.95764e-20, cumulative = -1.8314e-19
ExecutionTime = 1.77 s  ClockTime = 2 s

Time = 0.009375

Courant Number mean: 0.0218976 max: 0.556576
smoothSolver:  Solving for Ux, Initial residual = 0.0134407, Final residual = 9.53818e-06, No Iterations 6
smoothSolver:  Solving for Uy, Initial residual = 0.0170177, Final residual = 4.3181e-06, No Iterations 7
DICPCG:  Solving for p, Initial residual = 0.0103963, Final residual = 0.000484169, No Iterations 69
time step continuity errors : sum local = 4.55547e-08, global = -2.76576e-21, cumulative = -1.85906e-19
DICPCG:  Solving for p, Initial residual = 0.00706312, Final residual = 9.21382e-07, No Iterations 222
time step continuity errors : sum local = 8.38626e-11, global = -3.0984e-21, cumulative = -1.89004e-19
ExecutionTime = 1.88 s  ClockTime = 2 s

Time = 0.01

Courant Number mean: 0.0225588 max: 0.558802
smoothSolver:  Solving for Ux, Initial residual = 0.0125138, Final residual = 8.94853e-06, No Iterations 6
smoothSolver:  Solving for Uy, Initial residual = 0.0158326, Final residual = 4.02351e-06, No Iterations 7
DICPCG:  Solving for p, Initial residual = 0.00972262, Final residual = 0.000477989, No Iterations 68
time step continuity errors : sum local = 4.63449e-08, global = -8.35428e-21, cumulative = -1.97358e-19
DICPCG:  Solving for p, Initial residual = 0.00657256, Final residual = 9.60895e-07, No Iterations 221
time step continuity errors : sum local = 8.77158e-11, global = -1.47521e-20, cumulative = -2.12111e-19
ExecutionTime = 1.99 s  ClockTime = 2 s

Time = 0.010625

Courant Number mean: 0.0231895 max: 0.560802
smoothSolver:  Solving for Ux, Initial residual = 0.0117143, Final residual = 8.4379e-06, No Iterations 6
smoothSolver:  Solving for Uy, Initial residual = 0.0147769, Final residual = 3.75965e-06, No Iterations 7
DICPCG:  Solving for p, Initial residual = 0.00913436, Final residual = 0.000453137, No Iterations 76
time step continuity errors : sum local = 4.49782e-08, global = 6.152e-21, cumulative = -2.05959e-19
DICPCG:  Solving for p, Initial residual = 0.00607694, Final residual = 9.81348e-07, No Iterations 220
time step continuity errors : sum local = 8.9838e-11, global = -2.59232e-20, cumulative = -2.31882e-19
ExecutionTime = 2.1 s  ClockTime = 2 s

Time = 0.01125

Courant Number mean: 0.0237913 max: 0.56261
smoothSolver:  Solving for Ux, Initial residual = 0.0109938, Final residual = 7.97051e-06, No Iterations 6
smoothSolver:  Solving for Uy, Initial residual = 0.013886, Final residual = 3.53699e-06, No Iterations 7
DICPCG:  Solving for p, Initial residual = 0.00868814, Final residual = 0.000430419, No Iterations 169
time step continuity errors : sum local = 3.94957e-08, global = -9.48624e-21, cumulative = -2.41368e-19
DICPCG:  Solving for p, Initial residual = 0.00580014, Final residual = 8.96199e-07, No Iterations 220
time step continuity errors : sum local = 8.231e-11, global = -7.10621e-21, cumulative = -2.48474e-19
ExecutionTime = 2.24 s  ClockTime = 2 s

Time = 0.011875

Courant Number mean: 0.0243666 max: 0.564255
smoothSolver:  Solving for Ux, Initial residual = 0.0103671, Final residual = 7.56154e-06, No Iterations 6
smoothSolver:  Solving for Uy, Initial residual = 0.0130477, Final residual = 3.32762e-06, No Iterations 7
DICPCG:  Solving for p, Initial residual = 0.0080347, Final residual = 0.00039987, No Iterations 66
time step continuity errors : sum local = 3.70557e-08, global = -6.46083e-21, cumulative = -2.54935e-19
DICPCG:  Solving for p, Initial residual = 0.0054033, Final residual = 9.32121e-07, No Iterations 219
time step continuity errors : sum local = 8.57435e-11, global = -3.92843e-20, cumulative = -2.94219e-19
ExecutionTime = 2.34 s  ClockTime = 2 s

Time = 0.0125

Courant Number mean: 0.0249206 max: 0.565761
smoothSolver:  Solving for Ux, Initial residual = 0.00979573, Final residual = 7.18151e-06, No Iterations 6
smoothSolver:  Solving for Uy, Initial residual = 0.0123312, Final residual = 3.14762e-06, No Iterations 7
DICPCG:  Solving for p, Initial residual = 0.00766431, Final residual = 0.000366758, No Iterations 66
time step continuity errors : sum local = 3.4653e-08, global = -1.79336e-20, cumulative = -3.12153e-19
DICPCG:  Solving for p, Initial residual = 0.0052839, Final residual = 8.79313e-07, No Iterations 219
time step continuity errors : sum local = 8.1088e-11, global = -7.17175e-21, cumulative = -3.19325e-19
ExecutionTime = 2.46 s  ClockTime = 2 s

Time = 0.013125

Courant Number mean: 0.0254568 max: 0.567146
smoothSolver:  Solving for Ux, Initial residual = 0.00928787, Final residual = 6.84419e-06, No Iterations 6
smoothSolver:  Solving for Uy, Initial residual = 0.0116795, Final residual = 9.72882e-06, No Iterations 6
DICPCG:  Solving for p, Initial residual = 0.00725876, Final residual = 0.000350847, No Iterations 67
time step continuity errors : sum local = 3.32921e-08, global = 9.17803e-21, cumulative = -3.10147e-19
DICPCG:  Solving for p, Initial residual = 0.00497224, Final residual = 9.3683e-07, No Iterations 218
time step continuity errors : sum local = 8.65651e-11, global = -1.80598e-20, cumulative = -3.28206e-19
ExecutionTime = 2.56 s  ClockTime = 3 s

Time = 0.01375

Courant Number mean: 0.0259743 max: 0.568426
smoothSolver:  Solving for Ux, Initial residual = 0.00882372, Final residual = 6.53106e-06, No Iterations 6
smoothSolver:  Solving for Uy, Initial residual = 0.0111016, Final residual = 9.25327e-06, No Iterations 6
DICPCG:  Solving for p, Initial residual = 0.00695419, Final residual = 0.000335965, No Iterations 66
time step continuity errors : sum local = 3.28199e-08, global = -1.0392e-20, cumulative = -3.38598e-19
DICPCG:  Solving for p, Initial residual = 0.00475132, Final residual = 8.92933e-07, No Iterations 218
time step continuity errors : sum local = 8.26937e-11, global = 3.17375e-20, cumulative = -3.06861e-19
ExecutionTime = 2.67 s  ClockTime = 3 s

Time = 0.014375

Courant Number mean: 0.026474 max: 0.569612
smoothSolver:  Solving for Ux, Initial residual = 0.00841091, Final residual = 6.25193e-06, No Iterations 6
smoothSolver:  Solving for Uy, Initial residual = 0.0105652, Final residual = 8.81007e-06, No Iterations 6
DICPCG:  Solving for p, Initial residual = 0.00663108, Final residual = 0.000323133, No Iterations 91
time step continuity errors : sum local = 3.27537e-08, global = -1.07357e-20, cumulative = -3.17597e-19
DICPCG:  Solving for p, Initial residual = 0.00448318, Final residual = 8.28642e-07, No Iterations 218
time step continuity errors : sum local = 7.68682e-11, global = 3.24969e-21, cumulative = -3.14347e-19
ExecutionTime = 2.78 s  ClockTime = 3 s

Time = 0.015

Courant Number mean: 0.0269564 max: 0.570716
smoothSolver:  Solving for Ux, Initial residual = 0.00803034, Final residual = 5.99214e-06, No Iterations 6
smoothSolver:  Solving for Uy, Initial residual = 0.0100912, Final residual = 8.41872e-06, No Iterations 6
DICPCG:  Solving for p, Initial residual = 0.00641667, Final residual = 0.000318622, No Iterations 67
time step continuity errors : sum local = 3.29443e-08, global = 4.11013e-20, cumulative = -2.73246e-19
DICPCG:  Solving for p, Initial residual = 0.00430137, Final residual = 8.01623e-07, No Iterations 218
time step continuity errors : sum local = 7.45289e-11, global = -2.10554e-20, cumulative = -2.94301e-19
ExecutionTime = 2.89 s  ClockTime = 3 s

Time = 0.015625

Courant Number mean: 0.0274228 max: 0.571747
smoothSolver:  Solving for Ux, Initial residual = 0.007683, Final residual = 5.7549e-06, No Iterations 6
smoothSolver:  Solving for Uy, Initial residual = 0.0096438, Final residual = 8.04792e-06, No Iterations 6
DICPCG:  Solving for p, Initial residual = 0.00615096, Final residual = 0.000285011, No Iterations 168
time step continuity errors : sum local = 2.66304e-08, global = -1.73228e-20, cumulative = -3.11624e-19
DICPCG:  Solving for p, Initial residual = 0.00417884, Final residual = 9.13469e-07, No Iterations 217
time step continuity errors : sum local = 8.50942e-11, global = -4.79995e-21, cumulative = -3.16424e-19
ExecutionTime = 3.02 s  ClockTime = 3 s

Time = 0.01625

Courant Number mean: 0.0278734 max: 0.572714
smoothSolver:  Solving for Ux, Initial residual = 0.00735388, Final residual = 5.52746e-06, No Iterations 6
smoothSolver:  Solving for Uy, Initial residual = 0.00923633, Final residual = 7.7135e-06, No Iterations 6
DICPCG:  Solving for p, Initial residual = 0.00581418, Final residual = 0.000280889, No Iterations 64
time step continuity errors : sum local = 2.62389e-08, global = -2.03986e-20, cumulative = -3.36823e-19
DICPCG:  Solving for p, Initial residual = 0.00395118, Final residual = 8.99312e-07, No Iterations 217
time step continuity errors : sum local = 8.38714e-11, global = 5.74723e-21, cumulative = -3.31075e-19
ExecutionTime = 3.13 s  ClockTime = 3 s

Time = 0.016875

Courant Number mean: 0.028313 max: 0.573622
smoothSolver:  Solving for Ux, Initial residual = 0.00705399, Final residual = 5.31737e-06, No Iterations 6
smoothSolver:  Solving for Uy, Initial residual = 0.00886579, Final residual = 7.40638e-06, No Iterations 6
DICPCG:  Solving for p, Initial residual = 0.00562779, Final residual = 0.000270774, No Iterations 63
time step continuity errors : sum local = 2.55242e-08, global = -5.8353e-21, cumulative = -3.36911e-19
DICPCG:  Solving for p, Initial residual = 0.00388322, Final residual = 8.45377e-07, No Iterations 217
time step continuity errors : sum local = 7.89904e-11, global = -4.25351e-20, cumulative = -3.79446e-19
ExecutionTime = 3.23 s  ClockTime = 3 s

Time = 0.0175

Courant Number mean: 0.0287419 max: 0.574476
smoothSolver:  Solving for Ux, Initial residual = 0.00677903, Final residual = 5.12527e-06, No Iterations 6
smoothSolver:  Solving for Uy, Initial residual = 0.0085209, Final residual = 7.12034e-06, No Iterations 6
DICPCG:  Solving for p, Initial residual = 0.00541248, Final residual = 0.000266018, No Iterations 64
time step continuity errors : sum local = 2.50534e-08, global = -1.61321e-21, cumulative = -3.81059e-19
DICPCG:  Solving for p, Initial residual = 0.00375339, Final residual = 7.98806e-07, No Iterations 217
time step continuity errors : sum local = 7.47468e-11, global = 2.0343e-20, cumulative = -3.60716e-19
ExecutionTime = 3.34 s  ClockTime = 3 s

Time = 0.018125

Courant Number mean: 0.0291595 max: 0.575282
smoothSolver:  Solving for Ux, Initial residual = 0.00652315, Final residual = 4.94595e-06, No Iterations 6
smoothSolver:  Solving for Uy, Initial residual = 0.00820351, Final residual = 6.85725e-06, No Iterations 6
DICPCG:  Solving for p, Initial residual = 0.00524591, Final residual = 0.000251475, No Iterations 63
time step continuity errors : sum local = 2.41919e-08, global = 8.84556e-21, cumulative = -3.5187e-19
DICPCG:  Solving for p, Initial residual = 0.00362396, Final residual = 9.47471e-07, No Iterations 216
time step continuity errors : sum local = 8.88066e-11, global = 5.53949e-20, cumulative = -2.96475e-19
ExecutionTime = 3.44 s  ClockTime = 3 s

Time = 0.01875

Courant Number mean: 0.0295658 max: 0.576045
smoothSolver:  Solving for Ux, Initial residual = 0.00628483, Final residual = 4.77872e-06, No Iterations 6
smoothSolver:  Solving for Uy, Initial residual = 0.00790536, Final residual = 6.6092e-06, No Iterations 6
DICPCG:  Solving for p, Initial residual = 0.00505971, Final residual = 0.000250838, No Iterations 70
time step continuity errors : sum local = 2.43689e-08, global = 1.81689e-21, cumulative = -2.94659e-19
DICPCG:  Solving for p, Initial residual = 0.00345354, Final residual = 8.70529e-07, No Iterations 216
time step continuity errors : sum local = 8.17067e-11, global = -1.1113e-20, cumulative = -3.05772e-19
ExecutionTime = 3.54 s  ClockTime = 4 s

Time = 0.019375

Courant Number mean: 0.0299612 max: 0.576768
smoothSolver:  Solving for Ux, Initial residual = 0.00606329, Final residual = 4.6216e-06, No Iterations 6
smoothSolver:  Solving for Uy, Initial residual = 0.00763503, Final residual = 6.38463e-06, No Iterations 6
DICPCG:  Solving for p, Initial residual = 0.00496224, Final residual = 0.000244341, No Iterations 66
time step continuity errors : sum local = 2.4562e-08, global = -1.78798e-20, cumulative = -3.23651e-19
DICPCG:  Solving for p, Initial residual = 0.00336138, Final residual = 9.38662e-07, No Iterations 215
time step continuity errors : sum local = 8.82462e-11, global = -3.53785e-20, cumulative = -3.5903e-19
ExecutionTime = 3.65 s  ClockTime = 4 s

Time = 0.02

Courant Number mean: 0.0303459 max: 0.577455
smoothSolver:  Solving for Ux, Initial residual = 0.00585874, Final residual = 4.47571e-06, No Iterations 6
smoothSolver:  Solving for Uy, Initial residual = 0.00737229, Final residual = 6.16537e-06, No Iterations 6
DICPCG:  Solving for p, Initial residual = 0.00478231, Final residual = 0.000227165, No Iterations 105
time step continuity errors : sum local = 2.41626e-08, global = 3.0115e-20, cumulative = -3.28915e-19
DICPCG:  Solving for p, Initial residual = 0.00327431, Final residual = 9.72636e-07, No Iterations 214
time step continuity errors : sum local = 9.15266e-11, global = 4.89336e-21, cumulative = -3.24022e-19
ExecutionTime = 3.77 s  ClockTime = 4 s

Time = 0.020625

Courant Number mean: 0.0307208 max: 0.578108
smoothSolver:  Solving for Ux, Initial residual = 0.00566101, Final residual = 4.33334e-06, No Iterations 6
smoothSolver:  Solving for Uy, Initial residual = 0.0071399, Final residual = 5.97216e-06, No Iterations 6
DICPCG:  Solving for p, Initial residual = 0.00469312, Final residual = 0.000227205, No Iterations 66
time step continuity errors : sum local = 2.48526e-08, global = -2.30073e-20, cumulative = -3.47029e-19
DICPCG:  Solving for p, Initial residual = 0.00317529, Final residual = 9.55018e-07, No Iterations 214
time step continuity errors : sum local = 9.0002e-11, global = 1.25269e-20, cumulative = -3.34502e-19
ExecutionTime = 3.87 s  ClockTime = 4 s

Time = 0.02125

Courant Number mean: 0.0310862 max: 0.57873
smoothSolver:  Solving for Ux, Initial residual = 0.00548615, Final residual = 4.20963e-06, No Iterations 6
smoothSolver:  Solving for Uy, Initial residual = 0.00690641, Final residual = 5.77688e-06, No Iterations 6
DICPCG:  Solving for p, Initial residual = 0.00456917, Final residual = 0.000216152, No Iterations 167
time step continuity errors : sum local = 2.04423e-08, global = 5.08571e-20, cumulative = -2.83645e-19
DICPCG:  Solving for p, Initial residual = 0.00312482, Final residual = 9.056e-07, No Iterations 214
time step continuity errors : sum local = 8.54011e-11, global = -7.59731e-21, cumulative = -2.91242e-19
ExecutionTime = 4.01 s  ClockTime = 4 s

Time = 0.021875

Courant Number mean: 0.0314441 max: 0.579323
smoothSolver:  Solving for Ux, Initial residual = 0.00530707, Final residual = 4.08088e-06, No Iterations 6
smoothSolver:  Solving for Uy, Initial residual = 0.00669151, Final residual = 5.59985e-06, No Iterations 6
DICPCG:  Solving for p, Initial residual = 0.00434203, Final residual = 0.000214621, No Iterations 62
time step continuity errors : sum local = 2.02974e-08, global = 2.41724e-20, cumulative = -2.6707e-19
DICPCG:  Solving for p, Initial residual = 0.00298051, Final residual = 8.57634e-07, No Iterations 214
time step continuity errors : sum local = 8.09421e-11, global = -2.15817e-20, cumulative = -2.88651e-19
ExecutionTime = 4.12 s  ClockTime = 4 s

Time = 0.0225

Courant Number mean: 0.0317953 max: 0.579891
smoothSolver:  Solving for Ux, Initial residual = 0.00514177, Final residual = 3.96155e-06, No Iterations 6
smoothSolver:  Solving for Uy, Initial residual = 0.00649287, Final residual = 5.43418e-06, No Iterations 6
DICPCG:  Solving for p, Initial residual = 0.00425263, Final residual = 0.000205881, No Iterations 61
time step continuity errors : sum local = 1.9639e-08, global = 2.47668e-20, cumulative = -2.63885e-19
DICPCG:  Solving for p, Initial residual = 0.00295646, Final residual = 9.87374e-07, No Iterations 213
time step continuity errors : sum local = 9.32798e-11, global = 2.84782e-20, cumulative = -2.35406e-19
ExecutionTime = 4.22 s  ClockTime = 4 s

Time = 0.023125

Courant Number mean: 0.0321389 max: 0.580435
smoothSolver:  Solving for Ux, Initial residual = 0.00498832, Final residual = 3.84994e-06, No Iterations 6
smoothSolver:  Solving for Uy, Initial residual = 0.00630373, Final residual = 5.27631e-06, No Iterations 6
DICPCG:  Solving for p, Initial residual = 0.00412581, Final residual = 0.000203932, No Iterations 63
time step continuity errors : sum local = 1.94654e-08, global = -7.0645e-20, cumulative = -3.06051e-19
DICPCG:  Solving for p, Initial residual = 0.00283637, Final residual = 9.88687e-07, No Iterations 213
time step continuity errors : sum local = 9.35177e-11, global = 1.43781e-20, cumulative = -2.91673e-19
ExecutionTime = 4.32 s  ClockTime = 4 s

Time = 0.02375

Courant Number mean: 0.0324757 max: 0.580955
smoothSolver:  Solving for Ux, Initial residual = 0.00484413, Final residual = 3.74455e-06, No Iterations 6
smoothSolver:  Solving for Uy, Initial residual = 0.00612707, Final residual = 5.1291e-06, No Iterations 6
DICPCG:  Solving for p, Initial residual = 0.0040494, Final residual = 0.000188201, No Iterations 62
time step continuity errors : sum local = 1.83964e-08, global = 4.47457e-20, cumulative = -2.46928e-19
DICPCG:  Solving for p, Initial residual = 0.00280811, Final residual = 9.864e-07, No Iterations 213
time step continuity errors : sum local = 9.34126e-11, global = -3.60091e-20, cumulative = -2.82937e-19
ExecutionTime = 4.43 s  ClockTime = 4 s

Time = 0.024375

Courant Number mean: 0.0328051 max: 0.581454
smoothSolver:  Solving for Ux, Initial residual = 0.00470748, Final residual = 3.64509e-06, No Iterations 6
smoothSolver:  Solving for Uy, Initial residual = 0.00595705, Final residual = 4.98674e-06, No Iterations 6
DICPCG:  Solving for p, Initial residual = 0.00392409, Final residual = 0.000194736, No Iterations 90
time step continuity errors : sum local = 1.95727e-08, global = 8.65107e-21, cumulative = -2.74286e-19
DICPCG:  Solving for p, Initial residual = 0.00270781, Final residual = 8.5284e-07, No Iterations 214
time step continuity errors : sum local = 8.08445e-11, global = -4.82629e-20, cumulative = -3.22548e-19
ExecutionTime = 4.54 s  ClockTime = 5 s

Time = 0.025

Courant Number mean: 0.0331274 max: 0.581933
smoothSolver:  Solving for Ux, Initial residual = 0.00457976, Final residual = 3.55217e-06, No Iterations 6
smoothSolver:  Solving for Uy, Initial residual = 0.00579989, Final residual = 4.85557e-06, No Iterations 6
DICPCG:  Solving for p, Initial residual = 0.00388285, Final residual = 0.000178731, No Iterations 62
time step continuity errors : sum local = 1.83158e-08, global = -4.78941e-20, cumulative = -3.70443e-19
DICPCG:  Solving for p, Initial residual = 0.00264158, Final residual = 9.84941e-07, No Iterations 213
time step continuity errors : sum local = 9.34793e-11, global = 1.58712e-20, cumulative = -3.54571e-19
ExecutionTime = 4.64 s  ClockTime = 5 s

Time = 0.025625

Courant Number mean: 0.0334432 max: 0.582395
smoothSolver:  Solving for Ux, Initial residual = 0.0044548, Final residual = 3.46107e-06, No Iterations 6
smoothSolver:  Solving for Uy, Initial residual = 0.0056465, Final residual = 4.72694e-06, No Iterations 6
DICPCG:  Solving for p, Initial residual = 0.00376738, Final residual = 0.00018334, No Iterations 94
time step continuity errors : sum local = 1.94592e-08, global = -5.92569e-20, cumulative = -4.13828e-19
DICPCG:  Solving for p, Initial residual = 0.00259748, Final residual = 8.80963e-07, No Iterations 214
time step continuity errors : sum local = 8.36788e-11, global = 1.94263e-21, cumulative = -4.11886e-19
ExecutionTime = 4.75 s  ClockTime = 5 s

Time = 0.02625

Courant Number mean: 0.0337523 max: 0.582839
smoothSolver:  Solving for Ux, Initial residual = 0.00433695, Final residual = 3.3746e-06, No Iterations 6
smoothSolver:  Solving for Uy, Initial residual = 0.00550745, Final residual = 4.61076e-06, No Iterations 6
DICPCG:  Solving for p, Initial residual = 0.00373135, Final residual = 0.000180919, No Iterations 63
time step continuity errors : sum local = 1.96841e-08, global = -1.86586e-20, cumulative = -4.30544e-19
DICPCG:  Solving for p, Initial residual = 0.00254295, Final residual = 9.98265e-07, No Iterations 213
time step continuity errors : sum local = 9.49309e-11, global = -3.4501e-20, cumulative = -4.65045e-19
ExecutionTime = 4.85 s  ClockTime = 5 s

Time = 0.026875

Courant Number mean: 0.0340549 max: 0.583266
smoothSolver:  Solving for Ux, Initial residual = 0.00422822, Final residual = 3.2947e-06, No Iterations 6
smoothSolver:  Solving for Uy, Initial residual = 0.0053671, Final residual = 4.49286e-06, No Iterations 6
DICPCG:  Solving for p, Initial residual = 0.00363714, Final residual = 0.000180022, No Iterations 165
time step continuity errors : sum local = 1.72009e-08, global = -2.47082e-21, cumulative = -4.67516e-19
DICPCG:  Solving for p, Initial residual = 0.00251601, Final residual = 9.26945e-07, No Iterations 214
time step continuity errors : sum local = 8.82438e-11, global = 2.14374e-20, cumulative = -4.46079e-19
ExecutionTime = 4.99 s  ClockTime = 5 s

Time = 0.0275

Courant Number mean: 0.0343515 max: 0.583678
smoothSolver:  Solving for Ux, Initial residual = 0.00411798, Final residual = 3.21272e-06, No Iterations 6
smoothSolver:  Solving for Uy, Initial residual = 0.00523479, Final residual = 4.38347e-06, No Iterations 6
DICPCG:  Solving for p, Initial residual = 0.00350417, Final residual = 0.000163833, No Iterations 62
time step continuity errors : sum local = 1.56153e-08, global = -4.27032e-20, cumulative = -4.88782e-19
DICPCG:  Solving for p, Initial residual = 0.00240843, Final residual = 8.80549e-07, No Iterations 214
time step continuity errors : sum local = 8.38663e-11, global = 1.40144e-20, cumulative = -4.74768e-19
ExecutionTime = 5.09 s  ClockTime = 5 s

Time = 0.028125

Courant Number mean: 0.0346434 max: 0.584076
smoothSolver:  Solving for Ux, Initial residual = 0.00401495, Final residual = 3.13587e-06, No Iterations 6
smoothSolver:  Solving for Uy, Initial residual = 0.00511154, Final residual = 4.28031e-06, No Iterations 6
DICPCG:  Solving for p, Initial residual = 0.00343952, Final residual = 0.000165913, No Iterations 60
time step continuity errors : sum local = 1.59858e-08, global = 2.344e-20, cumulative = -4.51328e-19
DICPCG:  Solving for p, Initial residual = 0.00237155, Final residual = 8.61539e-07, No Iterations 214
time step continuity errors : sum local = 8.21157e-11, global = 2.15171e-20, cumulative = -4.2981e-19
ExecutionTime = 5.2 s  ClockTime = 5 s

Time = 0.02875

Courant Number mean: 0.0349312 max: 0.584461
smoothSolver:  Solving for Ux, Initial residual = 0.00391723, Final residual = 3.0635e-06, No Iterations 6
smoothSolver:  Solving for Uy, Initial residual = 0.00499242, Final residual = 4.18052e-06, No Iterations 6
DICPCG:  Solving for p, Initial residual = 0.00336432, Final residual = 0.000162994, No Iterations 63
time step continuity errors : sum local = 1.57363e-08, global = -2.02169e-20, cumulative = -4.50027e-19
DICPCG:  Solving for p, Initial residual = 0.00230953, Final residual = 8.62869e-07, No Iterations 214
time step continuity errors : sum local = 8.23137e-11, global = 1.2603e-20, cumulative = -4.37424e-19
ExecutionTime = 5.3 s  ClockTime = 5 s

Time = 0.029375

Courant Number mean: 0.035214 max: 0.584833
smoothSolver:  Solving for Ux, Initial residual = 0.0038246, Final residual = 9.85071e-06, No Iterations 5
smoothSolver:  Solving for Uy, Initial residual = 0.00488042, Final residual = 4.08689e-06, No Iterations 6
DICPCG:  Solving for p, Initial residual = 0.00331502, Final residual = 0.000161019, No Iterations 61
time step continuity errors : sum local = 1.59192e-08, global = 1.7981e-20, cumulative = -4.19443e-19
DICPCG:  Solving for p, Initial residual = 0.00227759, Final residual = 8.66375e-07, No Iterations 214
time step continuity errors : sum local = 8.27038e-11, global = -3.67276e-20, cumulative = -4.56171e-19
ExecutionTime = 5.4 s  ClockTime = 5 s

Time = 0.03

Courant Number mean: 0.035492 max: 0.585193
smoothSolver:  Solving for Ux, Initial residual = 0.00373531, Final residual = 9.63233e-06, No Iterations 5
smoothSolver:  Solving for Uy, Initial residual = 0.00477077, Final residual = 3.99464e-06, No Iterations 6
DICPCG:  Solving for p, Initial residual = 0.00323736, Final residual = 0.000158037, No Iterations 91
time step continuity errors : sum local = 1.61706e-08, global = 3.47557e-21, cumulative = -4.52695e-19
DICPCG:  Solving for p, Initial residual = 0.00224114, Final residual = 8.67155e-07, No Iterations 214
time step continuity errors : sum local = 8.28343e-11, global = -2.43093e-20, cumulative = -4.77005e-19
ExecutionTime = 5.51 s  ClockTime = 6 s

Time = 0.030625

Courant Number mean: 0.0357651 max: 0.585541
smoothSolver:  Solving for Ux, Initial residual = 0.0036521, Final residual = 9.42696e-06, No Iterations 5
smoothSolver:  Solving for Uy, Initial residual = 0.00466912, Final residual = 3.90955e-06, No Iterations 6
DICPCG:  Solving for p, Initial residual = 0.00320966, Final residual = 0.000157089, No Iterations 61
time step continuity errors : sum local = 1.63345e-08, global = 2.59991e-20, cumulative = -4.51006e-19
DICPCG:  Solving for p, Initial residual = 0.00219693, Final residual = 8.59581e-07, No Iterations 214
time step continuity errors : sum local = 8.21722e-11, global = -1.66975e-21, cumulative = -4.52675e-19
ExecutionTime = 5.62 s  ClockTime = 6 s

Time = 0.03125

Courant Number mean: 0.0360336 max: 0.585878
smoothSolver:  Solving for Ux, Initial residual = 0.00357022, Final residual = 9.22355e-06, No Iterations 5
smoothSolver:  Solving for Uy, Initial residual = 0.0045682, Final residual = 3.82461e-06, No Iterations 6
DICPCG:  Solving for p, Initial residual = 0.00313858, Final residual = 0.0001546, No Iterations 116
time step continuity errors : sum local = 1.65366e-08, global = -6.3102e-21, cumulative = -4.58986e-19
DICPCG:  Solving for p, Initial residual = 0.00217077, Final residual = 8.67382e-07, No Iterations 214
time step continuity errors : sum local = 8.29718e-11, global = -7.08767e-21, cumulative = -4.66073e-19
ExecutionTime = 5.74 s  ClockTime = 6 s

Time = 0.031875

Courant Number mean: 0.0362974 max: 0.586205
smoothSolver:  Solving for Ux, Initial residual = 0.00348967, Final residual = 9.02139e-06, No Iterations 5
smoothSolver:  Solving for Uy, Initial residual = 0.00447789, Final residual = 3.7492e-06, No Iterations 6
DICPCG:  Solving for p, Initial residual = 0.00310296, Final residual = 0.000151955, No Iterations 161
time step continuity errors : sum local = 1.45531e-08, global = 6.31699e-21, cumulative = -4.59756e-19
DICPCG:  Solving for p, Initial residual = 0.00215036, Final residual = 8.60875e-07, No Iterations 214
time step continuity errors : sum local = 8.23737e-11, global = -2.55241e-20, cumulative = -4.8528e-19
ExecutionTime = 5.88 s  ClockTime = 6 s

Time = 0.0325

Courant Number mean: 0.0365569 max: 0.586523
smoothSolver:  Solving for Ux, Initial residual = 0.00341588, Final residual = 8.83916e-06, No Iterations 5
smoothSolver:  Solving for Uy, Initial residual = 0.00438056, Final residual = 3.66791e-06, No Iterations 6
DICPCG:  Solving for p, Initial residual = 0.00299492, Final residual = 0.000141493, No Iterations 62
time step continuity errors : sum local = 1.37022e-08, global = 3.15819e-21, cumulative = -4.82122e-19
DICPCG:  Solving for p, Initial residual = 0.00207272, Final residual = 8.40137e-07, No Iterations 214
time step continuity errors : sum local = 8.04669e-11, global = 3.24835e-20, cumulative = -4.49639e-19
ExecutionTime = 5.98 s  ClockTime = 6 s

Time = 0.033125

Courant Number mean: 0.0368118 max: 0.586831
smoothSolver:  Solving for Ux, Initial residual = 0.00334196, Final residual = 8.65476e-06, No Iterations 5
smoothSolver:  Solving for Uy, Initial residual = 0.00429371, Final residual = 3.59514e-06, No Iterations 6
DICPCG:  Solving for p, Initial residual = 0.00295639, Final residual = 0.000140485, No Iterations 60
time step continuity errors : sum local = 1.38794e-08, global = 1.93026e-20, cumulative = -4.30336e-19
DICPCG:  Solving for p, Initial residual = 0.00204353, Final residual = 9.80954e-07, No Iterations 213
time step continuity errors : sum local = 9.40297e-11, global = -5.01233e-20, cumulative = -4.80459e-19
ExecutionTime = 6.08 s  ClockTime = 6 s

Time = 0.03375

Courant Number mean: 0.0370625 max: 0.587131
smoothSolver:  Solving for Ux, Initial residual = 0.00327217, Final residual = 8.48199e-06, No Iterations 5
smoothSolver:  Solving for Uy, Initial residual = 0.00420827, Final residual = 3.52325e-06, No Iterations 6
DICPCG:  Solving for p, Initial residual = 0.00290098, Final residual = 0.000138238, No Iterations 84
time step continuity errors : sum local = 1.39318e-08, global = 2.66666e-20, cumulative = -4.53793e-19
DICPCG:  Solving for p, Initial residual = 0.00201051, Final residual = 9.78506e-07, No Iterations 213
time step continuity errors : sum local = 9.3847e-11, global = -3.31185e-20, cumulative = -4.86911e-19
ExecutionTime = 6.19 s  ClockTime = 6 s

Time = 0.034375

Courant Number mean: 0.0373091 max: 0.587422
smoothSolver:  Solving for Ux, Initial residual = 0.00320721, Final residual = 8.32121e-06, No Iterations 5
smoothSolver:  Solving for Uy, Initial residual = 0.00412877, Final residual = 3.45663e-06, No Iterations 6
DICPCG:  Solving for p, Initial residual = 0.0028786, Final residual = 0.000133843, No Iterations 61
time step continuity errors : sum local = 1.38294e-08, global = 2.00633e-20, cumulative = -4.66848e-19
DICPCG:  Solving for p, Initial residual = 0.00197618, Final residual = 9.63447e-07, No Iterations 213
time step continuity errors : sum local = 9.24665e-11, global = 1.59017e-20, cumulative = -4.50946e-19
ExecutionTime = 6.29 s  ClockTime = 6 s

Time = 0.035

Courant Number mean: 0.0375515 max: 0.587705
smoothSolver:  Solving for Ux, Initial residual = 0.00314201, Final residual = 8.15831e-06, No Iterations 5
smoothSolver:  Solving for Uy, Initial residual = 0.004049, Final residual = 3.38938e-06, No Iterations 6
DICPCG:  Solving for p, Initial residual = 0.00281696, Final residual = 0.000133263, No Iterations 94
time step continuity errors : sum local = 1.43169e-08, global = -1.86864e-20, cumulative = -4.69633e-19
DICPCG:  Solving for p, Initial residual = 0.00194939, Final residual = 9.63736e-07, No Iterations 213
time step continuity errors : sum local = 9.25326e-11, global = 9.45797e-21, cumulative = -4.60175e-19
ExecutionTime = 6.4 s  ClockTime = 6 s

Time = 0.035625

Courant Number mean: 0.0377911 max: 0.58798
smoothSolver:  Solving for Ux, Initial residual = 0.00308054, Final residual = 8.00414e-06, No Iterations 5
smoothSolver:  Solving for Uy, Initial residual = 0.00397637, Final residual = 3.32848e-06, No Iterations 6
DICPCG:  Solving for p, Initial residual = 0.00280413, Final residual = 0.000134488, No Iterations 63
time step continuity errors : sum local = 1.47907e-08, global = 1.90524e-20, cumulative = -4.41122e-19
DICPCG:  Solving for p, Initial residual = 0.00192663, Final residual = 9.47406e-07, No Iterations 213
time step continuity errors : sum local = 9.10312e-11, global = 5.48765e-20, cumulative = -3.86246e-19
ExecutionTime = 6.5 s  ClockTime = 7 s

Time = 0.03625

Courant Number mean: 0.0380279 max: 0.588248
smoothSolver:  Solving for Ux, Initial residual = 0.00302256, Final residual = 7.85937e-06, No Iterations 5
smoothSolver:  Solving for Uy, Initial residual = 0.00390154, Final residual = 3.26531e-06, No Iterations 6
DICPCG:  Solving for p, Initial residual = 0.00275571, Final residual = 0.000128902, No Iterations 164
time step continuity errors : sum local = 1.24448e-08, global = 4.42589e-20, cumulative = -3.41987e-19
DICPCG:  Solving for p, Initial residual = 0.00191688, Final residual = 9.35281e-07, No Iterations 213
time step continuity errors : sum local = 8.99383e-11, global = 1.40999e-20, cumulative = -3.27887e-19
ExecutionTime = 6.64 s  ClockTime = 7 s

Time = 0.036875

Courant Number mean: 0.0382613 max: 0.58851
smoothSolver:  Solving for Ux, Initial residual = 0.00296194, Final residual = 7.70692e-06, No Iterations 5
smoothSolver:  Solving for Uy, Initial residual = 0.00382983, Final residual = 3.20581e-06, No Iterations 6
DICPCG:  Solving for p, Initial residual = 0.00266918, Final residual = 0.000131777, No Iterations 61
time step continuity errors : sum local = 1.26886e-08, global = 1.99109e-20, cumulative = -3.07976e-19
DICPCG:  Solving for p, Initial residual = 0.00185476, Final residual = 9.18471e-07, No Iterations 213
time step continuity errors : sum local = 8.83463e-11, global = -3.55834e-20, cumulative = -3.4356e-19
ExecutionTime = 6.74 s  ClockTime = 7 s

Time = 0.0375

Courant Number mean: 0.0384915 max: 0.588765
smoothSolver:  Solving for Ux, Initial residual = 0.00290502, Final residual = 7.56309e-06, No Iterations 5
smoothSolver:  Solving for Uy, Initial residual = 0.00376259, Final residual = 3.14939e-06, No Iterations 6
DICPCG:  Solving for p, Initial residual = 0.00263982, Final residual = 0.000128728, No Iterations 59
time step continuity errors : sum local = 1.25278e-08, global = 1.54658e-20, cumulative = -3.28094e-19
DICPCG:  Solving for p, Initial residual = 0.00183283, Final residual = 8.99123e-07, No Iterations 213
time step continuity errors : sum local = 8.65217e-11, global = -5.56442e-20, cumulative = -3.83738e-19
ExecutionTime = 6.84 s  ClockTime = 7 s

Time = 0.038125

Courant Number mean: 0.0387186 max: 0.589013
smoothSolver:  Solving for Ux, Initial residual = 0.00285044, Final residual = 7.42579e-06, No Iterations 5
smoothSolver:  Solving for Uy, Initial residual = 0.00369656, Final residual = 3.09386e-06, No Iterations 6
DICPCG:  Solving for p, Initial residual = 0.00259212, Final residual = 0.000126337, No Iterations 65
time step continuity errors : sum local = 1.23425e-08, global = -4.47796e-20, cumulative = -4.28518e-19
DICPCG:  Solving for p, Initial residual = 0.00179641, Final residual = 8.90443e-07, No Iterations 213
time step continuity errors : sum local = 8.57368e-11, global = 4.10987e-20, cumulative = -3.87419e-19
ExecutionTime = 6.94 s  ClockTime = 7 s

Time = 0.03875

Courant Number mean: 0.0389426 max: 0.589255
smoothSolver:  Solving for Ux, Initial residual = 0.00279915, Final residual = 7.2978e-06, No Iterations 5
smoothSolver:  Solving for Uy, Initial residual = 0.00363424, Final residual = 9.90786e-06, No Iterations 5
DICPCG:  Solving for p, Initial residual = 0.00255979, Final residual = 0.000118868, No Iterations 61
time step continuity errors : sum local = 1.19312e-08, global = 1.97614e-20, cumulative = -3.67657e-19
DICPCG:  Solving for p, Initial residual = 0.00175765, Final residual = 8.65222e-07, No Iterations 213
time step continuity errors : sum local = 8.33529e-11, global = 6.24164e-22, cumulative = -3.67033e-19
ExecutionTime = 7.04 s  ClockTime = 7 s

Time = 0.039375

Courant Number mean: 0.0391632 max: 0.589491
smoothSolver:  Solving for Ux, Initial residual = 0.00274827, Final residual = 7.17036e-06, No Iterations 5
smoothSolver:  Solving for Uy, Initial residual = 0.00357191, Final residual = 9.73688e-06, No Iterations 5
DICPCG:  Solving for p, Initial residual = 0.00250514, Final residual = 0.000123761, No Iterations 91
time step continuity errors : sum local = 1.28702e-08, global = 1.47374e-20, cumulative = -3.52296e-19
DICPCG:  Solving for p, Initial residual = 0.00174423, Final residual = 8.63342e-07, No Iterations 213
time step continuity errors : sum local = 8.32045e-11, global = 1.37207e-21, cumulative = -3.50924e-19
ExecutionTime = 7.15 s  ClockTime = 7 s

Time = 0.04

Courant Number mean: 0.0393809 max: 0.589721
smoothSolver:  Solving for Ux, Initial residual = 0.00270078, Final residual = 7.05078e-06, No Iterations 5
smoothSolver:  Solving for Uy, Initial residual = 0.00351419, Final residual = 9.57895e-06, No Iterations 5
DICPCG:  Solving for p, Initial residual = 0.00250543, Final residual = 0.000117354, No Iterations 61
time step continuity errors : sum local = 1.24939e-08, global = -1.9217e-20, cumulative = -3.70141e-19
DICPCG:  Solving for p, Initial residual = 0.00171879, Final residual = 8.59349e-07, No Iterations 213
time step continuity errors : sum local = 8.28703e-11, global = 1.43549e-20, cumulative = -3.55786e-19
ExecutionTime = 7.26 s  ClockTime = 7 s

Time = 0.040625

Courant Number mean: 0.0395954 max: 0.589946
smoothSolver:  Solving for Ux, Initial residual = 0.00265354, Final residual = 6.93159e-06, No Iterations 5
smoothSolver:  Solving for Uy, Initial residual = 0.00345586, Final residual = 9.41874e-06, No Iterations 5
DICPCG:  Solving for p, Initial residual = 0.00245835, Final residual = 0.000120124, No Iterations 162
time step continuity errors : sum local = 1.16565e-08, global = 6.59745e-21, cumulative = -3.49188e-19
DICPCG:  Solving for p, Initial residual = 0.00171889, Final residual = 8.30246e-07, No Iterations 213
time step continuity errors : sum local = 8.01106e-11, global = 2.95461e-20, cumulative = -3.19642e-19
ExecutionTime = 7.39 s  ClockTime = 7 s

Time = 0.04125

Courant Number mean: 0.039807 max: 0.590165
smoothSolver:  Solving for Ux, Initial residual = 0.00260681, Final residual = 6.81338e-06, No Iterations 5
smoothSolver:  Solving for Uy, Initial residual = 0.00339929, Final residual = 9.26529e-06, No Iterations 5
DICPCG:  Solving for p, Initial residual = 0.00240222, Final residual = 0.00011758, No Iterations 61
time step continuity errors : sum local = 1.13642e-08, global = 5.02026e-20, cumulative = -2.6944e-19
DICPCG:  Solving for p, Initial residual = 0.00167069, Final residual = 8.24236e-07, No Iterations 213
time step continuity errors : sum local = 7.95565e-11, global = -1.61547e-20, cumulative = -2.85594e-19
ExecutionTime = 7.5 s  ClockTime = 8 s

Time = 0.041875

Courant Number mean: 0.0400156 max: 0.59038
smoothSolver:  Solving for Ux, Initial residual = 0.00256183, Final residual = 6.6989e-06, No Iterations 5
smoothSolver:  Solving for Uy, Initial residual = 0.00334587, Final residual = 9.11934e-06, No Iterations 5
DICPCG:  Solving for p, Initial residual = 0.00237781, Final residual = 0.000118511, No Iterations 58
time step continuity errors : sum local = 1.15713e-08, global = -1.88832e-20, cumulative = -3.04477e-19
DICPCG:  Solving for p, Initial residual = 0.001642, Final residual = 8.14247e-07, No Iterations 213
time step continuity errors : sum local = 7.86187e-11, global = -4.43391e-20, cumulative = -3.48817e-19
ExecutionTime = 7.6 s  ClockTime = 8 s

Time = 0.0425

Courant Number mean: 0.0402213 max: 0.59059
smoothSolver:  Solving for Ux, Initial residual = 0.00251822, Final residual = 6.58801e-06, No Iterations 5
smoothSolver:  Solving for Uy, Initial residual = 0.00329315, Final residual = 8.97489e-06, No Iterations 5
DICPCG:  Solving for p, Initial residual = 0.00234071, Final residual = 0.000113612, No Iterations 66
time step continuity errors : sum local = 1.11485e-08, global = 3.57935e-20, cumulative = -3.13023e-19
DICPCG:  Solving for p, Initial residual = 0.00162315, Final residual = 8.1025e-07, No Iterations 213
time step continuity errors : sum local = 7.82713e-11, global = 2.73189e-20, cumulative = -2.85704e-19
ExecutionTime = 7.7 s  ClockTime = 8 s

Time = 0.043125

Courant Number mean: 0.0404242 max: 0.590796
smoothSolver:  Solving for Ux, Initial residual = 0.00247779, Final residual = 6.48594e-06, No Iterations 5
smoothSolver:  Solving for Uy, Initial residual = 0.0032432, Final residual = 8.83854e-06, No Iterations 5
DICPCG:  Solving for p, Initial residual = 0.00232271, Final residual = 0.00011487, No Iterations 60
time step continuity errors : sum local = 1.15543e-08, global = -3.53567e-20, cumulative = -3.21061e-19
DICPCG:  Solving for p, Initial residual = 0.00160209, Final residual = 8.01149e-07, No Iterations 213
time step continuity errors : sum local = 7.74254e-11, global = 6.50227e-20, cumulative = -2.56038e-19
ExecutionTime = 7.8 s  ClockTime = 8 s

Time = 0.04375

Courant Number mean: 0.0406246 max: 0.590997
smoothSolver:  Solving for Ux, Initial residual = 0.00243654, Final residual = 6.38191e-06, No Iterations 5
smoothSolver:  Solving for Uy, Initial residual = 0.00319303, Final residual = 8.70074e-06, No Iterations 5
DICPCG:  Solving for p, Initial residual = 0.0022798, Final residual = 0.000111529, No Iterations 91
time step continuity errors : sum local = 1.16654e-08, global = 2.5785e-20, cumulative = -2.30253e-19
DICPCG:  Solving for p, Initial residual = 0.00158931, Final residual = 9.95917e-07, No Iterations 212
time step continuity errors : sum local = 9.62914e-11, global = -2.07616e-20, cumulative = -2.51015e-19
ExecutionTime = 7.91 s  ClockTime = 8 s

Time = 0.044375

Courant Number mean: 0.0408226 max: 0.591193
smoothSolver:  Solving for Ux, Initial residual = 0.00239848, Final residual = 6.28586e-06, No Iterations 5
smoothSolver:  Solving for Uy, Initial residual = 0.00314642, Final residual = 8.57304e-06, No Iterations 5
DICPCG:  Solving for p, Initial residual = 0.00227731, Final residual = 0.000106841, No Iterations 61
time step continuity errors : sum local = 1.14434e-08, global = -2.03247e-20, cumulative = -2.7134e-19
DICPCG:  Solving for p, Initial residual = 0.00156751, Final residual = 9.84526e-07, No Iterations 212
time step continuity errors : sum local = 9.52106e-11, global = 7.60602e-20, cumulative = -1.95279e-19
ExecutionTime = 8.01 s  ClockTime = 8 s

Time = 0.045

Courant Number mean: 0.0410187 max: 0.591386
smoothSolver:  Solving for Ux, Initial residual = 0.00236038, Final residual = 6.1893e-06, No Iterations 5
smoothSolver:  Solving for Uy, Initial residual = 0.00309928, Final residual = 8.44343e-06, No Iterations 5
DICPCG:  Solving for p, Initial residual = 0.00224004, Final residual = 0.000104336, No Iterations 162
time step continuity errors : sum local = 1.01547e-08, global = -8.36095e-21, cumulative = -2.0364e-19
DICPCG:  Solving for p, Initial residual = 0.0015665, Final residual = 9.42293e-07, No Iterations 212
time step continuity errors : sum local = 9.11674e-11, global = 9.43987e-21, cumulative = -1.942e-19
ExecutionTime = 8.15 s  ClockTime = 8 s

Time = 0.045625

Courant Number mean: 0.0412127 max: 0.591574
smoothSolver:  Solving for Ux, Initial residual = 0.00232251, Final residual = 6.09298e-06, No Iterations 5
smoothSolver:  Solving for Uy, Initial residual = 0.00305312, Final residual = 8.31819e-06, No Iterations 5
DICPCG:  Solving for p, Initial residual = 0.00218713, Final residual = 0.000107889, No Iterations 61
time step continuity errors : sum local = 1.04586e-08, global = 3.09389e-20, cumulative = -1.63261e-19
DICPCG:  Solving for p, Initial residual = 0.00152721, Final residual = 9.30176e-07, No Iterations 212
time step continuity errors : sum local = 9.00471e-11, global = 4.5959e-20, cumulative = -1.17303e-19
ExecutionTime = 8.25 s  ClockTime = 8 s

Time = 0.04625

Courant Number mean: 0.0414047 max: 0.591758
smoothSolver:  Solving for Ux, Initial residual = 0.00228601, Final residual = 5.99974e-06, No Iterations 5
smoothSolver:  Solving for Uy, Initial residual = 0.00300964, Final residual = 8.19933e-06, No Iterations 5
DICPCG:  Solving for p, Initial residual = 0.00217103, Final residual = 0.000105272, No Iterations 58
time step continuity errors : sum local = 1.03181e-08, global = 6.17622e-21, cumulative = -1.11126e-19
DICPCG:  Solving for p, Initial residual = 0.00150064, Final residual = 9.18853e-07, No Iterations 212
time step continuity errors : sum local = 8.89647e-11, global = 2.08084e-20, cumulative = -9.03179e-20
ExecutionTime = 8.35 s  ClockTime = 8 s

Time = 0.046875

Courant Number mean: 0.0415944 max: 0.591938
smoothSolver:  Solving for Ux, Initial residual = 0.0022504, Final residual = 5.90888e-06, No Iterations 5
smoothSolver:  Solving for Uy, Initial residual = 0.00296647, Final residual = 8.08101e-06, No Iterations 5
DICPCG:  Solving for p, Initial residual = 0.00213683, Final residual = 0.000104586, No Iterations 70
time step continuity errors : sum local = 1.03163e-08, global = -4.70208e-21, cumulative = -9.502e-20
DICPCG:  Solving for p, Initial residual = 0.00149094, Final residual = 9.19641e-07, No Iterations 186
time step continuity errors : sum local = 8.90987e-11, global = 4.05733e-21, cumulative = -9.09627e-20
ExecutionTime = 8.44 s  ClockTime = 8 s

Time = 0.0475

Courant Number mean: 0.0417818 max: 0.592115
smoothSolver:  Solving for Ux, Initial residual = 0.00221786, Final residual = 5.82619e-06, No Iterations 5
smoothSolver:  Solving for Uy, Initial residual = 0.00292545, Final residual = 7.96903e-06, No Iterations 5
DICPCG:  Solving for p, Initial residual = 0.00212517, Final residual = 0.000102952, No Iterations 59
time step continuity errors : sum local = 1.04094e-08, global = -6.36509e-21, cumulative = -9.73278e-20
DICPCG:  Solving for p, Initial residual = 0.00147105, Final residual = 8.99174e-07, No Iterations 212
time step continuity errors : sum local = 8.71242e-11, global = -8.47978e-21, cumulative = -1.05808e-19
ExecutionTime = 8.54 s  ClockTime = 9 s

Time = 0.048125

Courant Number mean: 0.0419671 max: 0.592288
smoothSolver:  Solving for Ux, Initial residual = 0.00218352, Final residual = 5.73827e-06, No Iterations 5
smoothSolver:  Solving for Uy, Initial residual = 0.00288434, Final residual = 7.85609e-06, No Iterations 5
DICPCG:  Solving for p, Initial residual = 0.00208998, Final residual = 0.000100087, No Iterations 90
time step continuity errors : sum local = 1.0514e-08, global = -2.70868e-20, cumulative = -1.32894e-19
DICPCG:  Solving for p, Initial residual = 0.00145928, Final residual = 8.83959e-07, No Iterations 212
time step continuity errors : sum local = 8.56954e-11, global = 2.34259e-21, cumulative = -1.30552e-19
ExecutionTime = 8.65 s  ClockTime = 9 s

Time = 0.04875

Courant Number mean: 0.0421502 max: 0.592458
smoothSolver:  Solving for Ux, Initial residual = 0.0021525, Final residual = 5.65919e-06, No Iterations 5
smoothSolver:  Solving for Uy, Initial residual = 0.00284577, Final residual = 7.75048e-06, No Iterations 5
DICPCG:  Solving for p, Initial residual = 0.00208988, Final residual = 0.000102519, No Iterations 60
time step continuity errors : sum local = 1.09719e-08, global = 1.22837e-20, cumulative = -1.18268e-19
DICPCG:  Solving for p, Initial residual = 0.00144567, Final residual = 8.83512e-07, No Iterations 212
time step continuity errors : sum local = 8.56633e-11, global = 2.81218e-20, cumulative = -9.01463e-20
ExecutionTime = 8.76 s  ClockTime = 9 s

Time = 0.049375

Courant Number mean: 0.0423313 max: 0.592624
smoothSolver:  Solving for Ux, Initial residual = 0.00212067, Final residual = 5.57834e-06, No Iterations 5
smoothSolver:  Solving for Uy, Initial residual = 0.00280693, Final residual = 7.64372e-06, No Iterations 5
DICPCG:  Solving for p, Initial residual = 0.00206176, Final residual = 9.95924e-05, No Iterations 161
time step continuity errors : sum local = 9.71359e-09, global = 2.16375e-20, cumulative = -6.85088e-20
DICPCG:  Solving for p, Initial residual = 0.001446, Final residual = 9.57447e-07, No Iterations 211
time step continuity errors : sum local = 9.29074e-11, global = -3.58676e-20, cumulative = -1.04376e-19
ExecutionTime = 8.89 s  ClockTime = 9 s

Time = 0.05

Courant Number mean: 0.0425103 max: 0.592787
smoothSolver:  Solving for Ux, Initial residual = 0.00208943, Final residual = 5.49876e-06, No Iterations 5
smoothSolver:  Solving for Uy, Initial residual = 0.00276835, Final residual = 7.53919e-06, No Iterations 5
DICPCG:  Solving for p, Initial residual = 0.00201376, Final residual = 9.96789e-05, No Iterations 61
time step continuity errors : sum local = 9.69256e-09, global = -1.09041e-20, cumulative = -1.15281e-19
DICPCG:  Solving for p, Initial residual = 0.00141087, Final residual = 9.54893e-07, No Iterations 211
time step continuity errors : sum local = 9.26933e-11, global = 2.94582e-20, cumulative = -8.58224e-20
ExecutionTime = 8.99 s  ClockTime = 9 s

Time = 0.050625

Courant Number mean: 0.0426871 max: 0.592946
smoothSolver:  Solving for Ux, Initial residual = 0.00205921, Final residual = 5.42144e-06, No Iterations 5
smoothSolver:  Solving for Uy, Initial residual = 0.00273229, Final residual = 7.44066e-06, No Iterations 5
DICPCG:  Solving for p, Initial residual = 0.00199965, Final residual = 9.42771e-05, No Iterations 58
time step continuity errors : sum local = 9.26694e-09, global = -4.84324e-21, cumulative = -9.06656e-20
DICPCG:  Solving for p, Initial residual = 0.00138356, Final residual = 9.5322e-07, No Iterations 211
time step continuity errors : sum local = 9.25401e-11, global = 1.37579e-20, cumulative = -7.69077e-20
ExecutionTime = 9.09 s  ClockTime = 9 s

Time = 0.05125

Courant Number mean: 0.0428619 max: 0.593104
smoothSolver:  Solving for Ux, Initial residual = 0.00202965, Final residual = 5.34574e-06, No Iterations 5
smoothSolver:  Solving for Uy, Initial residual = 0.00269622, Final residual = 7.34184e-06, No Iterations 5
DICPCG:  Solving for p, Initial residual = 0.00196763, Final residual = 9.74533e-05, No Iterations 82
time step continuity errors : sum local = 9.71823e-09, global = 5.63411e-20, cumulative = -2.05666e-20
DICPCG:  Solving for p, Initial residual = 0.00137857, Final residual = 9.51091e-07, No Iterations 211
time step continuity errors : sum local = 9.23748e-11, global = -4.23631e-20, cumulative = -6.29297e-20
ExecutionTime = 9.19 s  ClockTime = 9 s

Time = 0.051875

Courant Number mean: 0.0430347 max: 0.593258
smoothSolver:  Solving for Ux, Initial residual = 0.00200311, Final residual = 5.27815e-06, No Iterations 5
smoothSolver:  Solving for Uy, Initial residual = 0.00266134, Final residual = 7.24636e-06, No Iterations 5
DICPCG:  Solving for p, Initial residual = 0.00196102, Final residual = 9.43294e-05, No Iterations 58
time step continuity errors : sum local = 9.54763e-09, global = -8.27766e-22, cumulative = -6.37575e-20
DICPCG:  Solving for p, Initial residual = 0.00136239, Final residual = 9.38431e-07, No Iterations 211
time step continuity errors : sum local = 9.1164e-11, global = -1.43933e-20, cumulative = -7.81508e-20
ExecutionTime = 9.29 s  ClockTime = 9 s

Time = 0.0525

Courant Number mean: 0.0432056 max: 0.593409
smoothSolver:  Solving for Ux, Initial residual = 0.00197403, Final residual = 5.2033e-06, No Iterations 5
smoothSolver:  Solving for Uy, Initial residual = 0.00262769, Final residual = 7.15414e-06, No Iterations 5
DICPCG:  Solving for p, Initial residual = 0.00193293, Final residual = 9.36216e-05, No Iterations 63
time step continuity errors : sum local = 9.56957e-09, global = -2.09689e-20, cumulative = -9.91198e-20
DICPCG:  Solving for p, Initial residual = 0.00134897, Final residual = 9.00547e-07, No Iterations 211
time step continuity errors : sum local = 8.75218e-11, global = -2.03031e-20, cumulative = -1.19423e-19
ExecutionTime = 9.39 s  ClockTime = 9 s

Time = 0.053125

Courant Number mean: 0.0433747 max: 0.593558
smoothSolver:  Solving for Ux, Initial residual = 0.00194769, Final residual = 5.13561e-06, No Iterations 5
smoothSolver:  Solving for Uy, Initial residual = 0.00259551, Final residual = 7.06637e-06, No Iterations 5
DICPCG:  Solving for p, Initial residual = 0.00192343, Final residual = 9.35648e-05, No Iterations 59
time step continuity errors : sum local = 9.88416e-09, global = 4.90355e-20, cumulative = -7.03874e-20
DICPCG:  Solving for p, Initial residual = 0.00132901, Final residual = 9.97177e-07, No Iterations 210
time step continuity errors : sum local = 9.69813e-11, global = -2.60174e-20, cumulative = -9.64048e-20
ExecutionTime = 9.49 s  ClockTime = 10 s

Time = 0.05375

Courant Number mean: 0.0435419 max: 0.593703
smoothSolver:  Solving for Ux, Initial residual = 0.00192161, Final residual = 5.06861e-06, No Iterations 5
smoothSolver:  Solving for Uy, Initial residual = 0.00256225, Final residual = 6.97485e-06, No Iterations 5
DICPCG:  Solving for p, Initial residual = 0.00191257, Final residual = 9.39341e-05, No Iterations 94
time step continuity errors : sum local = 1.04457e-08, global = 5.79624e-21, cumulative = -9.06085e-20
DICPCG:  Solving for p, Initial residual = 0.00133253, Final residual = 9.68217e-07, No Iterations 210
time step continuity errors : sum local = 9.41837e-11, global = -3.61796e-20, cumulative = -1.26788e-19
ExecutionTime = 9.61 s  ClockTime = 10 s

Time = 0.054375

Courant Number mean: 0.0437072 max: 0.593847
smoothSolver:  Solving for Ux, Initial residual = 0.00189649, Final residual = 5.0036e-06, No Iterations 5
smoothSolver:  Solving for Uy, Initial residual = 0.00253226, Final residual = 6.89258e-06, No Iterations 5
DICPCG:  Solving for p, Initial residual = 0.00190784, Final residual = 9.08858e-05, No Iterations 157
time step continuity errors : sum local = 8.83807e-09, global = -6.55566e-22, cumulative = -1.27444e-19
DICPCG:  Solving for p, Initial residual = 0.00133506, Final residual = 9.10378e-07, No Iterations 211
time step continuity errors : sum local = 8.85278e-11, global = -3.25968e-21, cumulative = -1.30703e-19
ExecutionTime = 9.74 s  ClockTime = 10 s

Time = 0.055

Courant Number mean: 0.0438707 max: 0.593987
smoothSolver:  Solving for Ux, Initial residual = 0.00187096, Final residual = 4.93895e-06, No Iterations 5
smoothSolver:  Solving for Uy, Initial residual = 0.00249868, Final residual = 6.80163e-06, No Iterations 5
DICPCG:  Solving for p, Initial residual = 0.0018529, Final residual = 9.21838e-05, No Iterations 62
time step continuity errors : sum local = 9.0533e-09, global = 1.68255e-20, cumulative = -1.13878e-19
DICPCG:  Solving for p, Initial residual = 0.00129219, Final residual = 9.5053e-07, No Iterations 210
time step continuity errors : sum local = 9.25323e-11, global = 8.26386e-21, cumulative = -1.05614e-19
ExecutionTime = 9.84 s  ClockTime = 10 s

Time = 0.055625

Courant Number mean: 0.044033 max: 0.594125
smoothSolver:  Solving for Ux, Initial residual = 0.00184605, Final residual = 4.87503e-06, No Iterations 5
smoothSolver:  Solving for Uy, Initial residual = 0.00246922, Final residual = 6.7211e-06, No Iterations 5
DICPCG:  Solving for p, Initial residual = 0.00185992, Final residual = 9.19554e-05, No Iterations 57
time step continuity errors : sum local = 9.21408e-09, global = -7.66253e-21, cumulative = -1.13277e-19
DICPCG:  Solving for p, Initial residual = 0.00127627, Final residual = 9.21583e-07, No Iterations 210
time step continuity errors : sum local = 8.9739e-11, global = -9.04888e-20, cumulative = -2.03765e-19
ExecutionTime = 9.94 s  ClockTime = 10 s

Time = 0.05625

Courant Number mean: 0.0441941 max: 0.594261
smoothSolver:  Solving for Ux, Initial residual = 0.00182155, Final residual = 4.81204e-06, No Iterations 5
smoothSolver:  Solving for Uy, Initial residual = 0.00243932, Final residual = 6.63905e-06, No Iterations 5
DICPCG:  Solving for p, Initial residual = 0.00181193, Final residual = 8.75728e-05, No Iterations 88
time step continuity errors : sum local = 9.05182e-09, global = -1.0045e-20, cumulative = -2.1381e-19
DICPCG:  Solving for p, Initial residual = 0.00126836, Final residual = 9.03383e-07, No Iterations 210
time step continuity errors : sum local = 8.79924e-11, global = 1.27639e-20, cumulative = -2.01046e-19
ExecutionTime = 10.05 s  ClockTime = 10 s

Time = 0.056875

Courant Number mean: 0.0443536 max: 0.594394
smoothSolver:  Solving for Ux, Initial residual = 0.00179986, Final residual = 4.75648e-06, No Iterations 5
smoothSolver:  Solving for Uy, Initial residual = 0.00241065, Final residual = 6.56044e-06, No Iterations 5
DICPCG:  Solving for p, Initial residual = 0.00180708, Final residual = 8.36258e-05, No Iterations 59
time step continuity errors : sum local = 8.82086e-09, global = 1.7618e-20, cumulative = -1.83428e-19
DICPCG:  Solving for p, Initial residual = 0.00125677, Final residual = 8.90855e-07, No Iterations 210
time step continuity errors : sum local = 8.676e-11, global = -1.25621e-20, cumulative = -1.95991e-19
ExecutionTime = 10.15 s  ClockTime = 10 s

Time = 0.0575

Courant Number mean: 0.0445116 max: 0.594524
smoothSolver:  Solving for Ux, Initial residual = 0.00177628, Final residual = 4.69567e-06, No Iterations 5
smoothSolver:  Solving for Uy, Initial residual = 0.00238256, Final residual = 6.48333e-06, No Iterations 5
DICPCG:  Solving for p, Initial residual = 0.00178571, Final residual = 8.89527e-05, No Iterations 63
time step continuity errors : sum local = 9.50508e-09, global = -2.37008e-20, cumulative = -2.19691e-19
DICPCG:  Solving for p, Initial residual = 0.00124568, Final residual = 9.83099e-07, No Iterations 209
time step continuity errors : sum local = 9.58457e-11, global = 5.04491e-20, cumulative = -1.69242e-19
ExecutionTime = 10.25 s  ClockTime = 10 s

Time = 0.058125

Courant Number mean: 0.0446682 max: 0.594653
smoothSolver:  Solving for Ux, Initial residual = 0.00175425, Final residual = 4.63852e-06, No Iterations 5
smoothSolver:  Solving for Uy, Initial residual = 0.00235658, Final residual = 6.41246e-06, No Iterations 5
DICPCG:  Solving for p, Initial residual = 0.00178278, Final residual = 8.84009e-05, No Iterations 66
time step continuity errors : sum local = 9.87824e-09, global = -6.29886e-20, cumulative = -2.32231e-19
DICPCG:  Solving for p, Initial residual = 0.00123487, Final residual = 9.94076e-07, No Iterations 209
time step continuity errors : sum local = 9.69197e-11, global = 1.41074e-20, cumulative = -2.18124e-19
ExecutionTime = 10.35 s  ClockTime = 10 s

Time = 0.05875

Courant Number mean: 0.0448232 max: 0.594779
smoothSolver:  Solving for Ux, Initial residual = 0.00173409, Final residual = 4.58683e-06, No Iterations 5
smoothSolver:  Solving for Uy, Initial residual = 0.002328, Final residual = 6.33383e-06, No Iterations 5
DICPCG:  Solving for p, Initial residual = 0.00176403, Final residual = 8.7873e-05, No Iterations 159
time step continuity errors : sum local = 8.60495e-09, global = 1.38619e-20, cumulative = -2.04262e-19
DICPCG:  Solving for p, Initial residual = 0.00124252, Final residual = 8.71932e-07, No Iterations 209
time step continuity errors : sum local = 8.50504e-11, global = 1.70634e-20, cumulative = -1.87198e-19
ExecutionTime = 10.48 s  ClockTime = 11 s

Time = 0.059375

Courant Number mean: 0.0449768 max: 0.594904
smoothSolver:  Solving for Ux, Initial residual = 0.00171111, Final residual = 4.52771e-06, No Iterations 5
smoothSolver:  Solving for Uy, Initial residual = 0.00230029, Final residual = 6.25898e-06, No Iterations 5
DICPCG:  Solving for p, Initial residual = 0.00171913, Final residual = 8.46207e-05, No Iterations 62
time step continuity errors : sum local = 8.26908e-09, global = 2.74861e-20, cumulative = -1.59712e-19
DICPCG:  Solving for p, Initial residual = 0.00120833, Final residual = 9.36649e-07, No Iterations 209
time step continuity errors : sum local = 9.14073e-11, global = 1.63277e-20, cumulative = -1.43384e-19
ExecutionTime = 10.59 s  ClockTime = 11 s

Time = 0.06

Courant Number mean: 0.0451287 max: 0.595026
smoothSolver:  Solving for Ux, Initial residual = 0.00168994, Final residual = 4.47305e-06, No Iterations 5
smoothSolver:  Solving for Uy, Initial residual = 0.00227485, Final residual = 6.18954e-06, No Iterations 5
DICPCG:  Solving for p, Initial residual = 0.00171809, Final residual = 8.5228e-05, No Iterations 56
time step continuity errors : sum local = 8.41295e-09, global = 5.49933e-20, cumulative = -8.83911e-20
DICPCG:  Solving for p, Initial residual = 0.00119339, Final residual = 9.16025e-07, No Iterations 209
time step continuity errors : sum local = 8.93853e-11, global = -1.19126e-20, cumulative = -1.00304e-19
ExecutionTime = 10.69 s  ClockTime = 11 s

Time = 0.060625

Courant Number mean: 0.0452793 max: 0.595146
smoothSolver:  Solving for Ux, Initial residual = 0.00166866, Final residual = 4.41803e-06, No Iterations 5
smoothSolver:  Solving for Uy, Initial residual = 0.00224923, Final residual = 6.11933e-06, No Iterations 5
DICPCG:  Solving for p, Initial residual = 0.00169948, Final residual = 8.4149e-05, No Iterations 82
time step continuity errors : sum local = 8.4437e-09, global = 7.87728e-21, cumulative = -9.24264e-20
DICPCG:  Solving for p, Initial residual = 0.00118535, Final residual = 9.05526e-07, No Iterations 209
time step continuity errors : sum local = 8.84152e-11, global = -7.94835e-21, cumulative = -1.00375e-19
ExecutionTime = 10.79 s  ClockTime = 11 s

Time = 0.06125

Courant Number mean: 0.0454283 max: 0.595264
smoothSolver:  Solving for Ux, Initial residual = 0.00165025, Final residual = 4.371e-06, No Iterations 5
smoothSolver:  Solving for Uy, Initial residual = 0.00222401, Final residual = 6.05037e-06, No Iterations 5
DICPCG:  Solving for p, Initial residual = 0.00168616, Final residual = 8.26163e-05, No Iterations 57
time step continuity errors : sum local = 8.40429e-09, global = 1.13775e-20, cumulative = -8.89973e-20
DICPCG:  Solving for p, Initial residual = 0.00117422, Final residual = 8.58275e-07, No Iterations 209
time step continuity errors : sum local = 8.38766e-11, global = 1.83e-20, cumulative = -7.06973e-20
ExecutionTime = 10.89 s  ClockTime = 11 s

Time = 0.061875

Courant Number mean: 0.0455759 max: 0.59538
smoothSolver:  Solving for Ux, Initial residual = 0.0016294, Final residual = 4.3169e-06, No Iterations 5
smoothSolver:  Solving for Uy, Initial residual = 0.00220013, Final residual = 5.98494e-06, No Iterations 5
DICPCG:  Solving for p, Initial residual = 0.00166538, Final residual = 8.07383e-05, No Iterations 61
time step continuity errors : sum local = 8.2894e-09, global = 7.17765e-21, cumulative = -6.35196e-20
DICPCG:  Solving for p, Initial residual = 0.00116103, Final residual = 8.38311e-07, No Iterations 209
time step continuity errors : sum local = 8.19016e-11, global = -1.38093e-20, cumulative = -7.73289e-20
ExecutionTime = 10.99 s  ClockTime = 11 s

Time = 0.0625

Courant Number mean: 0.0457221 max: 0.595494
smoothSolver:  Solving for Ux, Initial residual = 0.00161086, Final residual = 4.26893e-06, No Iterations 5
smoothSolver:  Solving for Uy, Initial residual = 0.00217671, Final residual = 5.92114e-06, No Iterations 5
DICPCG:  Solving for p, Initial residual = 0.0016556, Final residual = 8.07106e-05, No Iterations 58
time step continuity errors : sum local = 8.55527e-09, global = -2.40469e-20, cumulative = -1.01376e-19
DICPCG:  Solving for p, Initial residual = 0.00114962, Final residual = 8.5197e-07, No Iterations 209
time step continuity errors : sum local = 8.32354e-11, global = -9.90552e-21, cumulative = -1.11281e-19
ExecutionTime = 11.09 s  ClockTime = 11 s

Time = 0.063125

Courant Number mean: 0.045867 max: 0.595607
smoothSolver:  Solving for Ux, Initial residual = 0.00159227, Final residual = 4.22078e-06, No Iterations 5
smoothSolver:  Solving for Uy, Initial residual = 0.00215278, Final residual = 5.85543e-06, No Iterations 5
DICPCG:  Solving for p, Initial residual = 0.00163495, Final residual = 8.13822e-05, No Iterations 93
time step continuity errors : sum local = 9.04836e-09, global = 2.35549e-20, cumulative = -8.77264e-20
DICPCG:  Solving for p, Initial residual = 0.00115342, Final residual = 9.86596e-07, No Iterations 208
time step continuity errors : sum local = 9.64072e-11, global = -4.72657e-20, cumulative = -1.34992e-19
ExecutionTime = 11.2 s  ClockTime = 11 s

Time = 0.06375

Courant Number mean: 0.0460105 max: 0.595717
smoothSolver:  Solving for Ux, Initial residual = 0.00157486, Final residual = 4.17556e-06, No Iterations 5
smoothSolver:  Solving for Uy, Initial residual = 0.00213074, Final residual = 5.79501e-06, No Iterations 5
DICPCG:  Solving for p, Initial residual = 0.00164645, Final residual = 8.07514e-05, No Iterations 156
time step continuity errors : sum local = 7.88696e-09, global = -5.14241e-20, cumulative = -1.86416e-19
DICPCG:  Solving for p, Initial residual = 0.00115589, Final residual = 9.07763e-07, No Iterations 209
time step continuity errors : sum local = 8.87267e-11, global = 9.39895e-22, cumulative = -1.85476e-19
ExecutionTime = 11.33 s  ClockTime = 11 s

Time = 0.064375

Courant Number mean: 0.0461527 max: 0.595826
smoothSolver:  Solving for Ux, Initial residual = 0.00155649, Final residual = 4.12855e-06, No Iterations 5
smoothSolver:  Solving for Uy, Initial residual = 0.0021062, Final residual = 5.72871e-06, No Iterations 5
DICPCG:  Solving for p, Initial residual = 0.00159159, Final residual = 7.71066e-05, No Iterations 65
time step continuity errors : sum local = 7.60542e-09, global = -1.75868e-20, cumulative = -2.03063e-19
DICPCG:  Solving for p, Initial residual = 0.00112005, Final residual = 9.73131e-07, No Iterations 208
time step continuity errors : sum local = 9.51731e-11, global = -8.40195e-20, cumulative = -2.87083e-19
ExecutionTime = 11.43 s  ClockTime = 11 s

Time = 0.065

Courant Number mean: 0.0462934 max: 0.595933
smoothSolver:  Solving for Ux, Initial residual = 0.00153886, Final residual = 4.08292e-06, No Iterations 5
smoothSolver:  Solving for Uy, Initial residual = 0.00208474, Final residual = 5.67008e-06, No Iterations 5
DICPCG:  Solving for p, Initial residual = 0.00158726, Final residual = 7.54374e-05, No Iterations 56
time step continuity errors : sum local = 7.59831e-09, global = -1.35766e-20, cumulative = -3.00659e-19
DICPCG:  Solving for p, Initial residual = 0.00110525, Final residual = 9.3468e-07, No Iterations 208
time step continuity errors : sum local = 9.14264e-11, global = -1.00412e-19, cumulative = -4.01071e-19
ExecutionTime = 11.52 s  ClockTime = 12 s

Time = 0.065625

Courant Number mean: 0.0464328 max: 0.596039
smoothSolver:  Solving for Ux, Initial residual = 0.00152068, Final residual = 4.03571e-06, No Iterations 5
smoothSolver:  Solving for Uy, Initial residual = 0.00206291, Final residual = 5.61021e-06, No Iterations 5
DICPCG:  Solving for p, Initial residual = 0.00156623, Final residual = 7.2428e-05, No Iterations 88
time step continuity errors : sum local = 7.52066e-09, global = -3.56127e-20, cumulative = -4.36684e-19
DICPCG:  Solving for p, Initial residual = 0.00109923, Final residual = 9.25014e-07, No Iterations 208
time step continuity errors : sum local = 9.04952e-11, global = 3.38605e-20, cumulative = -4.02824e-19
ExecutionTime = 11.63 s  ClockTime = 12 s

Time = 0.06625

Courant Number mean: 0.0465709 max: 0.596143
smoothSolver:  Solving for Ux, Initial residual = 0.00150517, Final residual = 3.99574e-06, No Iterations 5
smoothSolver:  Solving for Uy, Initial residual = 0.00204149, Final residual = 5.55157e-06, No Iterations 5
DICPCG:  Solving for p, Initial residual = 0.001563, Final residual = 7.41359e-05, No Iterations 59
time step continuity errors : sum local = 7.81671e-09, global = -2.63376e-20, cumulative = -4.29161e-19
DICPCG:  Solving for p, Initial residual = 0.00109271, Final residual = 9.25817e-07, No Iterations 208
time step continuity errors : sum local = 9.06204e-11, global = -3.99465e-20, cumulative = -4.69108e-19
ExecutionTime = 11.73 s  ClockTime = 12 s

Time = 0.066875

Courant Number mean: 0.0467076 max: 0.596245
smoothSolver:  Solving for Ux, Initial residual = 0.00148783, Final residual = 3.95069e-06, No Iterations 5
smoothSolver:  Solving for Uy, Initial residual = 0.00202098, Final residual = 5.49535e-06, No Iterations 5
DICPCG:  Solving for p, Initial residual = 0.00155604, Final residual = 7.48007e-05, No Iterations 61
time step continuity errors : sum local = 8.00769e-09, global = -2.27738e-20, cumulative = -4.91882e-19
DICPCG:  Solving for p, Initial residual = 0.00109526, Final residual = 8.63447e-07, No Iterations 208
time step continuity errors : sum local = 8.45268e-11, global = 1.40656e-20, cumulative = -4.77816e-19
ExecutionTime = 11.83 s  ClockTime = 12 s

Time = 0.0675

Courant Number mean: 0.0468433 max: 0.596346
smoothSolver:  Solving for Ux, Initial residual = 0.00147181, Final residual = 3.9089e-06, No Iterations 5
smoothSolver:  Solving for Uy, Initial residual = 0.00200145, Final residual = 5.4421e-06, No Iterations 5
DICPCG:  Solving for p, Initial residual = 0.00155536, Final residual = 7.71222e-05, No Iterations 60
time step continuity errors : sum local = 8.58024e-09, global = -2.24384e-20, cumulative = -5.00254e-19
DICPCG:  Solving for p, Initial residual = 0.00109999, Final residual = 8.99402e-07, No Iterations 208
time step continuity errors : sum local = 8.80716e-11, global = 4.62095e-20, cumulative = -4.54045e-19
ExecutionTime = 11.94 s  ClockTime = 12 s

Time = 0.068125

Courant Number mean: 0.0469781 max: 0.596445
smoothSolver:  Solving for Ux, Initial residual = 0.0014566, Final residual = 3.86946e-06, No Iterations 5
[...]
time step continuity errors : sum local = 9.92819e-11, global = -2.7435e-20, cumulative = -3.81393e-19
ExecutionTime = 171.25 s  ClockTime = 175 s

Time = 2.98375

Courant Number mean: 0.0754316 max: 0.605916
smoothSolver:  Solving for Ux, Initial residual = 1.13847e-07, Final residual = 1.13847e-07, No Iterations 0
smoothSolver:  Solving for Uy, Initial residual = 1.69599e-07, Final residual = 1.69599e-07, No Iterations 0
DICPCG:  Solving for p, Initial residual = 1.53906e-06, Final residual = 8.34331e-07, No Iterations 1
time step continuity errors : sum local = 8.49261e-11, global = 4.74275e-21, cumulative = -3.7665e-19
DICPCG:  Solving for p, Initial residual = 1.05054e-06, Final residual = 9.21223e-07, No Iterations 1
time step continuity errors : sum local = 9.36108e-11, global = -2.99087e-20, cumulative = -4.06559e-19
ExecutionTime = 171.26 s  ClockTime = 175 s

Time = 2.98437

Courant Number mean: 0.0754316 max: 0.605916
smoothSolver:  Solving for Ux, Initial residual = 1.13521e-07, Final residual = 1.13521e-07, No Iterations 0
smoothSolver:  Solving for Uy, Initial residual = 1.69133e-07, Final residual = 1.69133e-07, No Iterations 0
DICPCG:  Solving for p, Initial residual = 1.04164e-06, Final residual = 8.23098e-07, No Iterations 1
time step continuity errors : sum local = 8.36463e-11, global = 1.6763e-20, cumulative = -3.89796e-19
DICPCG:  Solving for p, Initial residual = 9.42197e-07, Final residual = 9.42197e-07, No Iterations 0
time step continuity errors : sum local = 9.56607e-11, global = -3.59295e-21, cumulative = -3.93389e-19
ExecutionTime = 171.27 s  ClockTime = 175 s

Time = 2.985

Courant Number mean: 0.0754316 max: 0.605916
smoothSolver:  Solving for Ux, Initial residual = 1.13479e-07, Final residual = 1.13479e-07, No Iterations 0
smoothSolver:  Solving for Uy, Initial residual = 1.68895e-07, Final residual = 1.68895e-07, No Iterations 0
DICPCG:  Solving for p, Initial residual = 1.18224e-06, Final residual = 8.84818e-07, No Iterations 1
time step continuity errors : sum local = 8.98345e-11, global = -7.27924e-21, cumulative = -4.00668e-19
DICPCG:  Solving for p, Initial residual = 1.00813e-06, Final residual = 9.75844e-07, No Iterations 1
time step continuity errors : sum local = 9.9007e-11, global = -6.16551e-21, cumulative = -4.06834e-19
ExecutionTime = 171.28 s  ClockTime = 175 s

Time = 2.98562

Courant Number mean: 0.0754316 max: 0.605916
smoothSolver:  Solving for Ux, Initial residual = 1.13338e-07, Final residual = 1.13338e-07, No Iterations 0
smoothSolver:  Solving for Uy, Initial residual = 1.68572e-07, Final residual = 1.68572e-07, No Iterations 0
DICPCG:  Solving for p, Initial residual = 1.09772e-06, Final residual = 9.26095e-07, No Iterations 1
time step continuity errors : sum local = 9.39623e-11, global = 2.13171e-20, cumulative = -3.85517e-19
DICPCG:  Solving for p, Initial residual = 1.04111e-06, Final residual = 9.95261e-07, No Iterations 1
time step continuity errors : sum local = 1.00929e-10, global = -1.44822e-20, cumulative = -3.99999e-19
ExecutionTime = 171.29 s  ClockTime = 175 s

Time = 2.98625

Courant Number mean: 0.0754317 max: 0.605916
smoothSolver:  Solving for Ux, Initial residual = 1.13165e-07, Final residual = 1.13165e-07, No Iterations 0
smoothSolver:  Solving for Uy, Initial residual = 1.68287e-07, Final residual = 1.68287e-07, No Iterations 0
DICPCG:  Solving for p, Initial residual = 1.11335e-06, Final residual = 8.89504e-07, No Iterations 17
time step continuity errors : sum local = 9.071e-11, global = -7.96991e-20, cumulative = -4.79698e-19
DICPCG:  Solving for p, Initial residual = 1.57637e-06, Final residual = 9.22421e-07, No Iterations 17
time step continuity errors : sum local = 9.31612e-11, global = -3.26839e-20, cumulative = -5.12382e-19
ExecutionTime = 171.31 s  ClockTime = 175 s

Time = 2.98687

Courant Number mean: 0.0754317 max: 0.605916
smoothSolver:  Solving for Ux, Initial residual = 1.2503e-07, Final residual = 1.2503e-07, No Iterations 0
smoothSolver:  Solving for Uy, Initial residual = 1.70662e-07, Final residual = 1.70662e-07, No Iterations 0
DICPCG:  Solving for p, Initial residual = 1.71642e-06, Final residual = 9.77316e-07, No Iterations 14
time step continuity errors : sum local = 9.90309e-11, global = 3.90481e-20, cumulative = -4.73334e-19
DICPCG:  Solving for p, Initial residual = 1.57348e-06, Final residual = 8.97458e-07, No Iterations 8
time step continuity errors : sum local = 9.14202e-11, global = -4.29794e-20, cumulative = -5.16313e-19
ExecutionTime = 171.32 s  ClockTime = 175 s

Time = 2.9875

Courant Number mean: 0.0754317 max: 0.605916
smoothSolver:  Solving for Ux, Initial residual = 1.14678e-07, Final residual = 1.14678e-07, No Iterations 0
smoothSolver:  Solving for Uy, Initial residual = 1.73539e-07, Final residual = 1.73539e-07, No Iterations 0
DICPCG:  Solving for p, Initial residual = 1.72648e-06, Final residual = 9.012e-07, No Iterations 7
time step continuity errors : sum local = 9.21875e-11, global = 1.75535e-20, cumulative = -4.9876e-19
DICPCG:  Solving for p, Initial residual = 1.41999e-06, Final residual = 9.05779e-07, No Iterations 3
time step continuity errors : sum local = 9.3457e-11, global = 2.31869e-21, cumulative = -4.96441e-19
ExecutionTime = 171.33 s  ClockTime = 175 s

Time = 2.98812

Courant Number mean: 0.0754317 max: 0.605916
smoothSolver:  Solving for Ux, Initial residual = 1.11827e-07, Final residual = 1.11827e-07, No Iterations 0
smoothSolver:  Solving for Uy, Initial residual = 1.70508e-07, Final residual = 1.70508e-07, No Iterations 0
DICPCG:  Solving for p, Initial residual = 1.75964e-06, Final residual = 8.51642e-07, No Iterations 2
time step continuity errors : sum local = 8.83439e-11, global = 1.05918e-20, cumulative = -4.85849e-19
DICPCG:  Solving for p, Initial residual = 1.42208e-06, Final residual = 8.08439e-07, No Iterations 1
time step continuity errors : sum local = 8.38674e-11, global = 6.01832e-20, cumulative = -4.25666e-19
ExecutionTime = 171.34 s  ClockTime = 175 s

Time = 2.98875

Courant Number mean: 0.0754317 max: 0.605916
smoothSolver:  Solving for Ux, Initial residual = 1.11338e-07, Final residual = 1.11338e-07, No Iterations 0
smoothSolver:  Solving for Uy, Initial residual = 1.69456e-07, Final residual = 1.69456e-07, No Iterations 0
DICPCG:  Solving for p, Initial residual = 1.15811e-06, Final residual = 8.08623e-07, No Iterations 1
time step continuity errors : sum local = 8.40727e-11, global = 3.30351e-20, cumulative = -3.92631e-19
DICPCG:  Solving for p, Initial residual = 9.66227e-07, Final residual = 9.66227e-07, No Iterations 0
time step continuity errors : sum local = 1.00033e-10, global = -3.56259e-20, cumulative = -4.28257e-19
ExecutionTime = 171.35 s  ClockTime = 175 s

Time = 2.98937

Courant Number mean: 0.0754317 max: 0.605916
smoothSolver:  Solving for Ux, Initial residual = 1.11212e-07, Final residual = 1.11212e-07, No Iterations 0
smoothSolver:  Solving for Uy, Initial residual = 1.69067e-07, Final residual = 1.69067e-07, No Iterations 0
DICPCG:  Solving for p, Initial residual = 1.26596e-06, Final residual = 9.4005e-07, No Iterations 46
time step continuity errors : sum local = 9.51392e-11, global = -2.57971e-20, cumulative = -4.54054e-19
DICPCG:  Solving for p, Initial residual = 1.52846e-06, Final residual = 9.3001e-07, No Iterations 24
time step continuity errors : sum local = 9.51792e-11, global = -6.07215e-20, cumulative = -5.14776e-19
ExecutionTime = 171.38 s  ClockTime = 175 s

Time = 2.99

Courant Number mean: 0.0754317 max: 0.605916
smoothSolver:  Solving for Ux, Initial residual = 1.15878e-07, Final residual = 1.15878e-07, No Iterations 0
smoothSolver:  Solving for Uy, Initial residual = 1.84535e-07, Final residual = 1.84535e-07, No Iterations 0
DICPCG:  Solving for p, Initial residual = 1.75784e-06, Final residual = 8.93526e-07, No Iterations 38
time step continuity errors : sum local = 9.08518e-11, global = 1.84118e-20, cumulative = -4.96364e-19
DICPCG:  Solving for p, Initial residual = 1.33971e-06, Final residual = 9.35887e-07, No Iterations 15
time step continuity errors : sum local = 9.52026e-11, global = -7.16007e-21, cumulative = -5.03524e-19
ExecutionTime = 171.42 s  ClockTime = 175 s

Time = 2.99062

Courant Number mean: 0.0754317 max: 0.605916
smoothSolver:  Solving for Ux, Initial residual = 1.13748e-07, Final residual = 1.13748e-07, No Iterations 0
smoothSolver:  Solving for Uy, Initial residual = 1.71446e-07, Final residual = 1.71446e-07, No Iterations 0
DICPCG:  Solving for p, Initial residual = 1.66284e-06, Final residual = 9.41177e-07, No Iterations 8
time step continuity errors : sum local = 9.67581e-11, global = -9.57213e-21, cumulative = -5.13096e-19
DICPCG:  Solving for p, Initial residual = 1.4386e-06, Final residual = 8.33842e-07, No Iterations 4
time step continuity errors : sum local = 8.56721e-11, global = 1.82264e-20, cumulative = -4.9487e-19
ExecutionTime = 171.43 s  ClockTime = 175 s

Time = 2.99125

Courant Number mean: 0.0754317 max: 0.605916
smoothSolver:  Solving for Ux, Initial residual = 1.11884e-07, Final residual = 1.11884e-07, No Iterations 0
smoothSolver:  Solving for Uy, Initial residual = 1.68051e-07, Final residual = 1.68051e-07, No Iterations 0
DICPCG:  Solving for p, Initial residual = 1.63431e-06, Final residual = 8.24367e-07, No Iterations 2
time step continuity errors : sum local = 8.57026e-11, global = 3.56032e-20, cumulative = -4.59266e-19
DICPCG:  Solving for p, Initial residual = 1.31761e-06, Final residual = 8.08052e-07, No Iterations 1
time step continuity errors : sum local = 8.37448e-11, global = -2.94189e-20, cumulative = -4.88685e-19
ExecutionTime = 171.44 s  ClockTime = 175 s

Time = 2.99187

Courant Number mean: 0.0754317 max: 0.605916
smoothSolver:  Solving for Ux, Initial residual = 1.11762e-07, Final residual = 1.11762e-07, No Iterations 0
smoothSolver:  Solving for Uy, Initial residual = 1.67321e-07, Final residual = 1.67321e-07, No Iterations 0
DICPCG:  Solving for p, Initial residual = 1.27729e-06, Final residual = 9.35082e-07, No Iterations 1
time step continuity errors : sum local = 9.68592e-11, global = -6.05386e-20, cumulative = -5.49224e-19
DICPCG:  Solving for p, Initial residual = 1.1354e-06, Final residual = 9.59345e-07, No Iterations 37
time step continuity errors : sum local = 9.80709e-11, global = 7.85372e-20, cumulative = -4.70687e-19
ExecutionTime = 171.46 s  ClockTime = 175 s

Time = 2.9925

Courant Number mean: 0.0754317 max: 0.605916
smoothSolver:  Solving for Ux, Initial residual = 1.065e-07, Final residual = 1.065e-07, No Iterations 0
smoothSolver:  Solving for Uy, Initial residual = 1.98579e-07, Final residual = 1.98579e-07, No Iterations 0
DICPCG:  Solving for p, Initial residual = 1.8404e-06, Final residual = 8.69812e-07, No Iterations 36
time step continuity errors : sum local = 8.9085e-11, global = 3.26467e-22, cumulative = -4.7036e-19
DICPCG:  Solving for p, Initial residual = 1.34061e-06, Final residual = 9.68377e-07, No Iterations 21
time step continuity errors : sum local = 9.84822e-11, global = -1.40927e-20, cumulative = -4.84453e-19
ExecutionTime = 171.49 s  ClockTime = 175 s

Time = 2.99312

Courant Number mean: 0.0754317 max: 0.605916
smoothSolver:  Solving for Ux, Initial residual = 1.08036e-07, Final residual = 1.08036e-07, No Iterations 0
smoothSolver:  Solving for Uy, Initial residual = 1.72262e-07, Final residual = 1.72262e-07, No Iterations 0
DICPCG:  Solving for p, Initial residual = 1.75373e-06, Final residual = 9.99281e-07, No Iterations 13
time step continuity errors : sum local = 1.01859e-10, global = -2.93943e-20, cumulative = -5.13847e-19
DICPCG:  Solving for p, Initial residual = 1.47601e-06, Final residual = 8.88301e-07, No Iterations 7
time step continuity errors : sum local = 9.00641e-11, global = -1.61711e-20, cumulative = -5.30018e-19
ExecutionTime = 171.5 s  ClockTime = 175 s

Time = 2.99375

Courant Number mean: 0.0754317 max: 0.605916
smoothSolver:  Solving for Ux, Initial residual = 1.13453e-07, Final residual = 1.13453e-07, No Iterations 0
smoothSolver:  Solving for Uy, Initial residual = 1.65928e-07, Final residual = 1.65928e-07, No Iterations 0
DICPCG:  Solving for p, Initial residual = 1.66033e-06, Final residual = 9.18907e-07, No Iterations 4
time step continuity errors : sum local = 9.32418e-11, global = -5.62957e-20, cumulative = -5.86314e-19
DICPCG:  Solving for p, Initial residual = 1.50039e-06, Final residual = 9.85225e-07, No Iterations 2
time step continuity errors : sum local = 1.00083e-10, global = -3.32931e-20, cumulative = -6.19607e-19
ExecutionTime = 171.51 s  ClockTime = 175 s

Time = 2.99437

Courant Number mean: 0.0754317 max: 0.605916
smoothSolver:  Solving for Ux, Initial residual = 1.11939e-07, Final residual = 1.11939e-07, No Iterations 0
smoothSolver:  Solving for Uy, Initial residual = 1.65639e-07, Final residual = 1.65639e-07, No Iterations 0
DICPCG:  Solving for p, Initial residual = 1.88397e-06, Final residual = 9.56363e-07, No Iterations 29
time step continuity errors : sum local = 9.83136e-11, global = -4.54877e-20, cumulative = -6.65095e-19
DICPCG:  Solving for p, Initial residual = 1.45593e-06, Final residual = 9.58091e-07, No Iterations 16
time step continuity errors : sum local = 9.93043e-11, global = 7.26141e-20, cumulative = -5.92481e-19
ExecutionTime = 171.54 s  ClockTime = 176 s

Time = 2.995

Courant Number mean: 0.0754317 max: 0.605916
smoothSolver:  Solving for Ux, Initial residual = 1.19316e-07, Final residual = 1.19316e-07, No Iterations 0
smoothSolver:  Solving for Uy, Initial residual = 1.65732e-07, Final residual = 1.65732e-07, No Iterations 0
DICPCG:  Solving for p, Initial residual = 1.82566e-06, Final residual = 9.32025e-07, No Iterations 35
time step continuity errors : sum local = 9.60657e-11, global = 2.98759e-20, cumulative = -5.62605e-19
DICPCG:  Solving for p, Initial residual = 1.43555e-06, Final residual = 8.04199e-07, No Iterations 18
time step continuity errors : sum local = 8.28438e-11, global = -5.8616e-20, cumulative = -6.21221e-19
ExecutionTime = 171.56 s  ClockTime = 176 s

Time = 2.99562

Courant Number mean: 0.0754317 max: 0.605916
smoothSolver:  Solving for Ux, Initial residual = 1.16005e-07, Final residual = 1.16005e-07, No Iterations 0
smoothSolver:  Solving for Uy, Initial residual = 1.6153e-07, Final residual = 1.6153e-07, No Iterations 0
DICPCG:  Solving for p, Initial residual = 1.4636e-06, Final residual = 7.14728e-07, No Iterations 9
time step continuity errors : sum local = 7.3022e-11, global = -3.53232e-20, cumulative = -6.56544e-19
DICPCG:  Solving for p, Initial residual = 1.11724e-06, Final residual = 9.81165e-07, No Iterations 1
time step continuity errors : sum local = 9.95516e-11, global = -9.10472e-20, cumulative = -7.47591e-19
ExecutionTime = 171.57 s  ClockTime = 176 s

Time = 2.99625

Courant Number mean: 0.0754317 max: 0.605916
smoothSolver:  Solving for Ux, Initial residual = 1.11622e-07, Final residual = 1.11622e-07, No Iterations 0
smoothSolver:  Solving for Uy, Initial residual = 1.65053e-07, Final residual = 1.65053e-07, No Iterations 0
DICPCG:  Solving for p, Initial residual = 1.61605e-06, Final residual = 9.66683e-07, No Iterations 4
time step continuity errors : sum local = 9.82308e-11, global = -2.52556e-20, cumulative = -7.72847e-19
DICPCG:  Solving for p, Initial residual = 1.50534e-06, Final residual = 8.70803e-07, No Iterations 3
time step continuity errors : sum local = 8.86618e-11, global = 4.20937e-20, cumulative = -7.30753e-19
ExecutionTime = 171.58 s  ClockTime = 176 s

Time = 2.99687

Courant Number mean: 0.0754317 max: 0.605916
smoothSolver:  Solving for Ux, Initial residual = 1.09855e-07, Final residual = 1.09855e-07, No Iterations 0
smoothSolver:  Solving for Uy, Initial residual = 1.6565e-07, Final residual = 1.6565e-07, No Iterations 0
DICPCG:  Solving for p, Initial residual = 1.64296e-06, Final residual = 6.90454e-07, No Iterations 2
time step continuity errors : sum local = 7.03792e-11, global = 5.2595e-22, cumulative = -7.30227e-19
DICPCG:  Solving for p, Initial residual = 1.24282e-06, Final residual = 9.54243e-07, No Iterations 1
time step continuity errors : sum local = 9.70283e-11, global = 1.27319e-20, cumulative = -7.17495e-19
ExecutionTime = 171.59 s  ClockTime = 176 s

Time = 2.9975

Courant Number mean: 0.0754317 max: 0.605916
smoothSolver:  Solving for Ux, Initial residual = 1.09204e-07, Final residual = 1.09204e-07, No Iterations 0
smoothSolver:  Solving for Uy, Initial residual = 1.65178e-07, Final residual = 1.65178e-07, No Iterations 0
DICPCG:  Solving for p, Initial residual = 1.52733e-06, Final residual = 8.67423e-07, No Iterations 1
time step continuity errors : sum local = 8.82105e-11, global = -3.94557e-20, cumulative = -7.56951e-19
DICPCG:  Solving for p, Initial residual = 1.1225e-06, Final residual = 9.58188e-07, No Iterations 1
time step continuity errors : sum local = 9.73601e-11, global = -1.19426e-19, cumulative = -8.76377e-19
ExecutionTime = 171.6 s  ClockTime = 176 s

Time = 2.99812

Courant Number mean: 0.0754317 max: 0.605916
smoothSolver:  Solving for Ux, Initial residual = 1.08918e-07, Final residual = 1.08918e-07, No Iterations 0
smoothSolver:  Solving for Uy, Initial residual = 1.64849e-07, Final residual = 1.64849e-07, No Iterations 0
DICPCG:  Solving for p, Initial residual = 1.20131e-06, Final residual = 9.59535e-07, No Iterations 1
time step continuity errors : sum local = 9.74802e-11, global = -3.56473e-20, cumulative = -9.12024e-19
DICPCG:  Solving for p, Initial residual = 1.16179e-06, Final residual = 9.95247e-07, No Iterations 1
time step continuity errors : sum local = 1.0106e-10, global = 4.76329e-20, cumulative = -8.64391e-19
ExecutionTime = 171.61 s  ClockTime = 176 s

Time = 2.99875

Courant Number mean: 0.0754317 max: 0.605916
smoothSolver:  Solving for Ux, Initial residual = 1.08753e-07, Final residual = 1.08753e-07, No Iterations 0
smoothSolver:  Solving for Uy, Initial residual = 1.64571e-07, Final residual = 1.64571e-07, No Iterations 0
DICPCG:  Solving for p, Initial residual = 1.18672e-06, Final residual = 9.85539e-07, No Iterations 1
time step continuity errors : sum local = 1.00054e-10, global = -2.80636e-22, cumulative = -8.64672e-19
DICPCG:  Solving for p, Initial residual = 1.1508e-06, Final residual = 9.55037e-07, No Iterations 1
time step continuity errors : sum local = 9.6948e-11, global = 2.34967e-20, cumulative = -8.41175e-19
ExecutionTime = 171.62 s  ClockTime = 176 s

Time = 2.99937

Courant Number mean: 0.0754317 max: 0.605916
smoothSolver:  Solving for Ux, Initial residual = 1.08635e-07, Final residual = 1.08635e-07, No Iterations 0
smoothSolver:  Solving for Uy, Initial residual = 1.64294e-07, Final residual = 1.64294e-07, No Iterations 0
DICPCG:  Solving for p, Initial residual = 1.07909e-06, Final residual = 9.00507e-07, No Iterations 1
time step continuity errors : sum local = 9.14087e-11, global = -5.73792e-20, cumulative = -8.98554e-19
DICPCG:  Solving for p, Initial residual = 1.00816e-06, Final residual = 8.32909e-07, No Iterations 1
time step continuity errors : sum local = 8.45551e-11, global = 4.93883e-20, cumulative = -8.49166e-19
ExecutionTime = 171.64 s  ClockTime = 176 s

Time = 3

Courant Number mean: 0.0754318 max: 0.605916
smoothSolver:  Solving for Ux, Initial residual = 1.08556e-07, Final residual = 1.08556e-07, No Iterations 0
smoothSolver:  Solving for Uy, Initial residual = 1.64033e-07, Final residual = 1.64033e-07, No Iterations 0
DICPCG:  Solving for p, Initial residual = 8.86825e-07, Final residual = 8.86825e-07, No Iterations 0
time step continuity errors : sum local = 8.99708e-11, global = 8.52433e-21, cumulative = -8.40642e-19
DICPCG:  Solving for p, Initial residual = 9.09193e-07, Final residual = 9.09193e-07, No Iterations 0
time step continuity errors : sum local = 9.22201e-11, global = 6.85622e-21, cumulative = -8.33786e-19
ExecutionTime = 171.7 s  ClockTime = 176 s

End

