/*---------------------------------------------------------------------------*\
  =========                 |
  \\      /  F ield         | OpenFOAM: The Open Source CFD Toolbox
   \\    /   O peration     | Website:  https://openfoam.org
    \\  /    A nd           | Version:  9
     \\/     M anipulation  |
\*---------------------------------------------------------------------------*/
Build  : 9
Exec   : gmshToFoam isoQ.msh
Date   : Apr 23 2025
Time   : 12:41:33
Host   : "c100-006.frontera.tacc.utexas.edu"
PID    : 226667
I/O    : uncollated
Case   : /work2/10249/ctshep3141/frontera/Research/meshes
nProcs : 1
sigFpe : Enabling floating point exception trapping (FOAM_SIGFPE).
fileModificationChecking : Monitoring run-time modified files using timeStampMaster (fileModificationSkew 10)
allowSystemOperations : Allowing user-supplied system call operations

// * * * * * * * * * * * * * * * * * * * * * * * * * * * * * * * * * * * * * //
Create time



--> FOAM FATAL IO ERROR: 
problem while reading header for object controlDict

file: /work2/10249/ctshep3141/frontera/Research/meshes/system/controlDict at line 1.

    From function Foam::autoPtr<Foam::ISstream> Foam::fileOperations::uncollatedFileOperation::readStream(Foam::regIOobject &, const Foam::fileName &, const Foam::word &, bool) const
    in file global/fileOperations/uncollatedFileOperation/uncollatedFileOperation.C at line 561.

FOAM exiting

