/*---------------------------------------------------------------------------*\
  =========                 |
  \\      /  F ield         | OpenFOAM: The Open Source CFD Toolbox
   \\    /   O peration     | Website:  https://openfoam.org
    \\  /    A nd           | Version:  7
     \\/     M anipulation  |
\*---------------------------------------------------------------------------*/
Build  : 7
Exec   : icoFoam
Date   : Feb 08 2025
Time   : 01:45:22
Host   : "c207-034.frontera.tacc.utexas.edu"
PID    : 21437
I/O    : uncollated
Case   : /work2/10249/ctshep3141/frontera/coe347/COE-347-Open-Foam/of-project-1/cavity-Re-10/160x160
nProcs : 1
sigFpe : Enabling floating point exception trapping (FOAM_SIGFPE).
fileModificationChecking : Monitoring run-time modified files using timeStampMaster (fileModificationSkew 10)
allowSystemOperations : Allowing user-supplied system call operations

// * * * * * * * * * * * * * * * * * * * * * * * * * * * * * * * * * * * * * //
Create time

Create mesh for time = 0.5

Reading transportProperties

Reading field p

Reading field U

Reading/calculating face flux field phi


Starting time loop

Time = 0.500625

Courant Number mean: 0.225834 max: 0.981661
smoothSolver:  Solving for Ux, Initial residual = 1.30589e-05, Final residual = 3.05024e-06, No Iterations 1
smoothSolver:  Solving for Uy, Initial residual = 3.48782e-05, Final residual = 7.90238e-06, No Iterations 1
DICPCG:  Solving for p, Initial residual = 0.000175767, Final residual = 7.47534e-06, No Iterations 7
time step continuity errors : sum local = 1.08098e-09, global = -1.94704e-20, cumulative = -1.94704e-20
DICPCG:  Solving for p, Initial residual = 0.000101254, Final residual = 9.99291e-07, No Iterations 42
time step continuity errors : sum local = 1.46775e-10, global = 1.22209e-19, cumulative = 1.02739e-19
ExecutionTime = 0.24 s  ClockTime = 1 s

Time = 0.50125

Courant Number mean: 0.225834 max: 0.98166
smoothSolver:  Solving for Ux, Initial residual = 3.00731e-06, Final residual = 3.00731e-06, No Iterations 0
smoothSolver:  Solving for Uy, Initial residual = 7.74993e-06, Final residual = 7.74993e-06, No Iterations 0
DICPCG:  Solving for p, Initial residual = 4.26643e-05, Final residual = 1.59015e-06, No Iterations 21
time step continuity errors : sum local = 2.32287e-10, global = -5.48471e-20, cumulative = 4.78917e-20
DICPCG:  Solving for p, Initial residual = 2.11246e-05, Final residual = 9.76708e-07, No Iterations 25
time step continuity errors : sum local = 1.43668e-10, global = 1.36121e-20, cumulative = 6.15039e-20
ExecutionTime = 0.27 s  ClockTime = 1 s

Time = 0.501875

Courant Number mean: 0.225834 max: 0.98166
smoothSolver:  Solving for Ux, Initial residual = 2.91166e-06, Final residual = 2.91166e-06, No Iterations 0
smoothSolver:  Solving for Uy, Initial residual = 7.6169e-06, Final residual = 7.6169e-06, No Iterations 0
DICPCG:  Solving for p, Initial residual = 1.53279e-05, Final residual = 9.00201e-07, No Iterations 13
time step continuity errors : sum local = 1.32504e-10, global = 1.00366e-19, cumulative = 1.6187e-19
DICPCG:  Solving for p, Initial residual = 1.23216e-05, Final residual = 8.93563e-07, No Iterations 1
time step continuity errors : sum local = 1.31513e-10, global = -2.79079e-20, cumulative = 1.33962e-19
ExecutionTime = 0.29 s  ClockTime = 1 s

Time = 0.5025

Courant Number mean: 0.225834 max: 0.98166
smoothSolver:  Solving for Ux, Initial residual = 2.88969e-06, Final residual = 2.88969e-06, No Iterations 0
smoothSolver:  Solving for Uy, Initial residual = 7.59509e-06, Final residual = 7.59509e-06, No Iterations 0
DICPCG:  Solving for p, Initial residual = 1.0603e-05, Final residual = 9.93965e-07, No Iterations 29
time step continuity errors : sum local = 1.45475e-10, global = 2.72373e-21, cumulative = 1.36685e-19
DICPCG:  Solving for p, Initial residual = 8.86629e-06, Final residual = 7.95386e-07, No Iterations 16
time step continuity errors : sum local = 1.16056e-10, global = -3.57182e-21, cumulative = 1.33114e-19
ExecutionTime = 0.31 s  ClockTime = 1 s

Time = 0.503125

Courant Number mean: 0.225834 max: 0.98166
smoothSolver:  Solving for Ux, Initial residual = 2.8784e-06, Final residual = 2.8784e-06, No Iterations 0
smoothSolver:  Solving for Uy, Initial residual = 7.58877e-06, Final residual = 7.58877e-06, No Iterations 0
DICPCG:  Solving for p, Initial residual = 7.72427e-06, Final residual = 9.21048e-07, No Iterations 9
time step continuity errors : sum local = 1.33824e-10, global = -1.12895e-19, cumulative = 2.02182e-20
DICPCG:  Solving for p, Initial residual = 6.77117e-06, Final residual = 8.44355e-07, No Iterations 5
time step continuity errors : sum local = 1.2262e-10, global = 4.90929e-20, cumulative = 6.93111e-20
ExecutionTime = 0.33 s  ClockTime = 1 s

Time = 0.50375

Courant Number mean: 0.225834 max: 0.98166
smoothSolver:  Solving for Ux, Initial residual = 2.87028e-06, Final residual = 2.87028e-06, No Iterations 0
smoothSolver:  Solving for Uy, Initial residual = 7.54266e-06, Final residual = 7.54266e-06, No Iterations 0
DICPCG:  Solving for p, Initial residual = 6.21762e-06, Final residual = 9.7516e-07, No Iterations 2
time step continuity errors : sum local = 1.41496e-10, global = -1.63114e-19, cumulative = -9.38033e-20
DICPCG:  Solving for p, Initial residual = 5.80166e-06, Final residual = 9.68667e-07, No Iterations 2
time step continuity errors : sum local = 1.40614e-10, global = 1.49568e-20, cumulative = -7.88465e-20
ExecutionTime = 0.34 s  ClockTime = 1 s

Time = 0.504375

Courant Number mean: 0.225834 max: 0.98166
smoothSolver:  Solving for Ux, Initial residual = 2.86461e-06, Final residual = 2.86461e-06, No Iterations 0
smoothSolver:  Solving for Uy, Initial residual = 7.5244e-06, Final residual = 7.5244e-06, No Iterations 0
DICPCG:  Solving for p, Initial residual = 5.59168e-06, Final residual = 7.64918e-07, No Iterations 27
time step continuity errors : sum local = 1.12694e-10, global = 1.25488e-19, cumulative = 4.66413e-20
DICPCG:  Solving for p, Initial residual = 4.73388e-06, Final residual = 9.51832e-07, No Iterations 16
time step continuity errors : sum local = 1.40199e-10, global = 6.27685e-20, cumulative = 1.0941e-19
ExecutionTime = 0.37 s  ClockTime = 1 s

Time = 0.505

Courant Number mean: 0.225834 max: 0.98166
smoothSolver:  Solving for Ux, Initial residual = 2.87678e-06, Final residual = 2.87678e-06, No Iterations 0
smoothSolver:  Solving for Uy, Initial residual = 7.47267e-06, Final residual = 7.47267e-06, No Iterations 0
DICPCG:  Solving for p, Initial residual = 4.74535e-06, Final residual = 9.37963e-07, No Iterations 32
time step continuity errors : sum local = 1.36785e-10, global = -8.18197e-20, cumulative = 2.75902e-20
DICPCG:  Solving for p, Initial residual = 4.24625e-06, Final residual = 8.41589e-07, No Iterations 13
time step continuity errors : sum local = 1.21921e-10, global = -3.19695e-21, cumulative = 2.43932e-20
ExecutionTime = 0.4 s  ClockTime = 1 s

Time = 0.505625

Courant Number mean: 0.225834 max: 0.98166
smoothSolver:  Solving for Ux, Initial residual = 2.84151e-06, Final residual = 2.84151e-06, No Iterations 0
smoothSolver:  Solving for Uy, Initial residual = 7.54588e-06, Final residual = 7.54588e-06, No Iterations 0
DICPCG:  Solving for p, Initial residual = 4.10413e-06, Final residual = 9.28506e-07, No Iterations 7
time step continuity errors : sum local = 1.3452e-10, global = 2.5249e-21, cumulative = 2.69181e-20
DICPCG:  Solving for p, Initial residual = 4.05868e-06, Final residual = 9.96012e-07, No Iterations 26
time step continuity errors : sum local = 1.4476e-10, global = -7.02792e-20, cumulative = -4.33611e-20
ExecutionTime = 0.43 s  ClockTime = 1 s

Time = 0.50625

Courant Number mean: 0.225834 max: 0.98166
smoothSolver:  Solving for Ux, Initial residual = 2.90821e-06, Final residual = 2.90821e-06, No Iterations 0
smoothSolver:  Solving for Uy, Initial residual = 7.30266e-06, Final residual = 7.30266e-06, No Iterations 0
DICPCG:  Solving for p, Initial residual = 3.5569e-06, Final residual = 8.69933e-07, No Iterations 14
time step continuity errors : sum local = 1.27923e-10, global = -3.54503e-20, cumulative = -7.88114e-20
DICPCG:  Solving for p, Initial residual = 3.23936e-06, Final residual = 9.65805e-07, No Iterations 31
time step continuity errors : sum local = 1.41507e-10, global = -8.26152e-20, cumulative = -1.61427e-19
ExecutionTime = 0.46 s  ClockTime = 1 s

Time = 0.506875

Courant Number mean: 0.225834 max: 0.98166
smoothSolver:  Solving for Ux, Initial residual = 2.79089e-06, Final residual = 2.79089e-06, No Iterations 0
smoothSolver:  Solving for Uy, Initial residual = 7.64862e-06, Final residual = 7.64862e-06, No Iterations 0
DICPCG:  Solving for p, Initial residual = 3.23176e-06, Final residual = 7.29035e-07, No Iterations 16
time step continuity errors : sum local = 1.07117e-10, global = -3.43133e-20, cumulative = -1.9574e-19
DICPCG:  Solving for p, Initial residual = 3.03934e-06, Final residual = 9.66793e-07, No Iterations 10
time step continuity errors : sum local = 1.40834e-10, global = 1.16845e-20, cumulative = -1.84055e-19
ExecutionTime = 0.48 s  ClockTime = 1 s

Time = 0.5075

Courant Number mean: 0.225835 max: 0.98166
smoothSolver:  Solving for Ux, Initial residual = 2.83376e-06, Final residual = 2.83376e-06, No Iterations 0
smoothSolver:  Solving for Uy, Initial residual = 7.48432e-06, Final residual = 7.48432e-06, No Iterations 0
DICPCG:  Solving for p, Initial residual = 3.16789e-06, Final residual = 9.83582e-07, No Iterations 8
time step continuity errors : sum local = 1.42758e-10, global = 3.00381e-20, cumulative = -1.54017e-19
DICPCG:  Solving for p, Initial residual = 2.69502e-06, Final residual = 8.5637e-07, No Iterations 5
time step continuity errors : sum local = 1.24329e-10, global = -1.76888e-20, cumulative = -1.71706e-19
ExecutionTime = 0.5 s  ClockTime = 1 s

Time = 0.508125

Courant Number mean: 0.225835 max: 0.98166
smoothSolver:  Solving for Ux, Initial residual = 2.8393e-06, Final residual = 2.8393e-06, No Iterations 0
smoothSolver:  Solving for Uy, Initial residual = 7.4575e-06, Final residual = 7.4575e-06, No Iterations 0
DICPCG:  Solving for p, Initial residual = 2.2233e-06, Final residual = 9.83238e-07, No Iterations 2
time step continuity errors : sum local = 1.42685e-10, global = -2.82491e-20, cumulative = -1.99955e-19
DICPCG:  Solving for p, Initial residual = 2.93909e-06, Final residual = 9.44293e-07, No Iterations 20
time step continuity errors : sum local = 1.37133e-10, global = -2.02998e-20, cumulative = -2.20255e-19
ExecutionTime = 0.52 s  ClockTime = 1 s

Time = 0.50875

Courant Number mean: 0.225835 max: 0.98166
smoothSolver:  Solving for Ux, Initial residual = 2.90543e-06, Final residual = 2.90543e-06, No Iterations 0
smoothSolver:  Solving for Uy, Initial residual = 7.23874e-06, Final residual = 7.23874e-06, No Iterations 0
DICPCG:  Solving for p, Initial residual = 2.56722e-06, Final residual = 8.05353e-07, No Iterations 13
time step continuity errors : sum local = 1.16976e-10, global = 1.16644e-19, cumulative = -1.03611e-19
DICPCG:  Solving for p, Initial residual = 2.63195e-06, Final residual = 9.49771e-07, No Iterations 23
time step continuity errors : sum local = 1.39e-10, global = 3.30768e-20, cumulative = -7.05346e-20
ExecutionTime = 0.54 s  ClockTime = 1 s

Time = 0.509375

Courant Number mean: 0.225835 max: 0.98166
smoothSolver:  Solving for Ux, Initial residual = 2.80628e-06, Final residual = 2.80628e-06, No Iterations 0
smoothSolver:  Solving for Uy, Initial residual = 7.51201e-06, Final residual = 7.51201e-06, No Iterations 0
DICPCG:  Solving for p, Initial residual = 2.36491e-06, Final residual = 8.8724e-07, No Iterations 8
time step continuity errors : sum local = 1.29995e-10, global = -1.07941e-19, cumulative = -1.78476e-19
DICPCG:  Solving for p, Initial residual = 2.26105e-06, Final residual = 6.2533e-07, No Iterations 5
time step continuity errors : sum local = 9.24872e-11, global = -1.0465e-19, cumulative = -2.83126e-19
ExecutionTime = 0.56 s  ClockTime = 1 s

Time = 0.51

Courant Number mean: 0.225835 max: 0.98166
smoothSolver:  Solving for Ux, Initial residual = 2.80569e-06, Final residual = 2.80569e-06, No Iterations 0
smoothSolver:  Solving for Uy, Initial residual = 7.49179e-06, Final residual = 7.49179e-06, No Iterations 0
DICPCG:  Solving for p, Initial residual = 2.09722e-06, Final residual = 8.29754e-07, No Iterations 5
time step continuity errors : sum local = 1.21923e-10, global = -1.16593e-19, cumulative = -3.99719e-19
DICPCG:  Solving for p, Initial residual = 2.0491e-06, Final residual = 9.40918e-07, No Iterations 4
time step continuity errors : sum local = 1.37888e-10, global = 8.21867e-21, cumulative = -3.915e-19
ExecutionTime = 0.57 s  ClockTime = 1 s

Time = 0.510625

Courant Number mean: 0.225835 max: 0.98166
smoothSolver:  Solving for Ux, Initial residual = 2.80757e-06, Final residual = 2.80757e-06, No Iterations 0
smoothSolver:  Solving for Uy, Initial residual = 7.46995e-06, Final residual = 7.46995e-06, No Iterations 0
DICPCG:  Solving for p, Initial residual = 2.44332e-06, Final residual = 9.45961e-07, No Iterations 4
time step continuity errors : sum local = 1.38855e-10, global = -1.55185e-19, cumulative = -5.46685e-19
DICPCG:  Solving for p, Initial residual = 2.29477e-06, Final residual = 9.46985e-07, No Iterations 11
time step continuity errors : sum local = 1.37149e-10, global = -1.00715e-20, cumulative = -5.56756e-19
ExecutionTime = 0.59 s  ClockTime = 1 s

Time = 0.51125

Courant Number mean: 0.225835 max: 0.98166
smoothSolver:  Solving for Ux, Initial residual = 2.89005e-06, Final residual = 2.89005e-06, No Iterations 0
smoothSolver:  Solving for Uy, Initial residual = 7.19851e-06, Final residual = 7.19851e-06, No Iterations 0
DICPCG:  Solving for p, Initial residual = 2.21147e-06, Final residual = 9.10527e-07, No Iterations 11
time step continuity errors : sum local = 1.31937e-10, global = -3.44039e-20, cumulative = -5.9116e-19
DICPCG:  Solving for p, Initial residual = 2.04381e-06, Final residual = 9.88689e-07, No Iterations 19
time step continuity errors : sum local = 1.43513e-10, global = 1.03233e-19, cumulative = -4.87928e-19
ExecutionTime = 0.61 s  ClockTime = 1 s

Time = 0.511875

Courant Number mean: 0.225835 max: 0.98166
smoothSolver:  Solving for Ux, Initial residual = 2.81157e-06, Final residual = 2.81157e-06, No Iterations 0
smoothSolver:  Solving for Uy, Initial residual = 7.43463e-06, Final residual = 7.43463e-06, No Iterations 0
DICPCG:  Solving for p, Initial residual = 2.28848e-06, Final residual = 9.23225e-07, No Iterations 8
time step continuity errors : sum local = 1.33014e-10, global = 7.7545e-20, cumulative = -4.10383e-19
DICPCG:  Solving for p, Initial residual = 1.95652e-06, Final residual = 9.66575e-07, No Iterations 5
time step continuity errors : sum local = 1.39663e-10, global = -7.15366e-20, cumulative = -4.81919e-19
ExecutionTime = 0.63 s  ClockTime = 1 s

Time = 0.5125

Courant Number mean: 0.225835 max: 0.98166
smoothSolver:  Solving for Ux, Initial residual = 2.80653e-06, Final residual = 2.80653e-06, No Iterations 0
smoothSolver:  Solving for Uy, Initial residual = 7.42954e-06, Final residual = 7.42954e-06, No Iterations 0
DICPCG:  Solving for p, Initial residual = 1.87809e-06, Final residual = 9.40512e-07, No Iterations 5
time step continuity errors : sum local = 1.36134e-10, global = -2.81074e-20, cumulative = -5.10027e-19
DICPCG:  Solving for p, Initial residual = 1.97102e-06, Final residual = 8.89412e-07, No Iterations 12
time step continuity errors : sum local = 1.29543e-10, global = 3.09782e-20, cumulative = -4.79048e-19
ExecutionTime = 0.65 s  ClockTime = 1 s

Time = 0.513125

Courant Number mean: 0.225835 max: 0.98166
smoothSolver:  Solving for Ux, Initial residual = 2.80633e-06, Final residual = 2.80633e-06, No Iterations 0
smoothSolver:  Solving for Uy, Initial residual = 7.38438e-06, Final residual = 7.38438e-06, No Iterations 0
DICPCG:  Solving for p, Initial residual = 1.87367e-06, Final residual = 9.26324e-07, No Iterations 11
time step continuity errors : sum local = 1.34721e-10, global = -3.24939e-20, cumulative = -5.11542e-19
DICPCG:  Solving for p, Initial residual = 1.84348e-06, Final residual = 8.40577e-07, No Iterations 11
time step continuity errors : sum local = 1.22328e-10, global = -2.16061e-19, cumulative = -7.27603e-19
ExecutionTime = 0.67 s  ClockTime = 1 s

Time = 0.51375

Courant Number mean: 0.225835 max: 0.98166
smoothSolver:  Solving for Ux, Initial residual = 2.81191e-06, Final residual = 2.81191e-06, No Iterations 0
smoothSolver:  Solving for Uy, Initial residual = 7.36258e-06, Final residual = 7.36258e-06, No Iterations 0
DICPCG:  Solving for p, Initial residual = 1.50939e-06, Final residual = 8.90703e-07, No Iterations 8
time step continuity errors : sum local = 1.29991e-10, global = 6.33039e-20, cumulative = -6.643e-19
DICPCG:  Solving for p, Initial residual = 1.74802e-06, Final residual = 8.07499e-07, No Iterations 4
time step continuity errors : sum local = 1.17557e-10, global = -5.89075e-20, cumulative = -7.23207e-19
ExecutionTime = 0.68 s  ClockTime = 1 s

Time = 0.514375

Courant Number mean: 0.225835 max: 0.98166
smoothSolver:  Solving for Ux, Initial residual = 2.81305e-06, Final residual = 2.81305e-06, No Iterations 0
smoothSolver:  Solving for Uy, Initial residual = 7.35485e-06, Final residual = 7.35485e-06, No Iterations 0
DICPCG:  Solving for p, Initial residual = 1.84742e-06, Final residual = 7.86744e-07, No Iterations 2
time step continuity errors : sum local = 1.15084e-10, global = -1.43593e-20, cumulative = -7.37566e-19
DICPCG:  Solving for p, Initial residual = 1.81246e-06, Final residual = 6.04198e-07, No Iterations 2
time step continuity errors : sum local = 8.85557e-11, global = -4.29362e-22, cumulative = -7.37996e-19
ExecutionTime = 0.7 s  ClockTime = 1 s

Time = 0.515

Courant Number mean: 0.225835 max: 0.98166
smoothSolver:  Solving for Ux, Initial residual = 2.80935e-06, Final residual = 2.80935e-06, No Iterations 0
smoothSolver:  Solving for Uy, Initial residual = 7.34515e-06, Final residual = 7.34515e-06, No Iterations 0
DICPCG:  Solving for p, Initial residual = 1.32089e-06, Final residual = 6.92877e-07, No Iterations 1
time step continuity errors : sum local = 1.01532e-10, global = 3.33731e-20, cumulative = -7.04623e-19
DICPCG:  Solving for p, Initial residual = 1.41939e-06, Final residual = 5.14315e-07, No Iterations 1
time step continuity errors : sum local = 7.57529e-11, global = -1.06898e-21, cumulative = -7.05692e-19
ExecutionTime = 0.71 s  ClockTime = 1 s

Time = 0.515625

Courant Number mean: 0.225835 max: 0.98166
smoothSolver:  Solving for Ux, Initial residual = 2.80628e-06, Final residual = 2.80628e-06, No Iterations 0
smoothSolver:  Solving for Uy, Initial residual = 7.33673e-06, Final residual = 7.33673e-06, No Iterations 0
DICPCG:  Solving for p, Initial residual = 1.11026e-06, Final residual = 6.61538e-07, No Iterations 1
time step continuity errors : sum local = 9.70484e-11, global = 8.64174e-20, cumulative = -6.19274e-19
DICPCG:  Solving for p, Initial residual = 1.27244e-06, Final residual = 6.19409e-07, No Iterations 1
time step continuity errors : sum local = 9.09829e-11, global = 3.48082e-20, cumulative = -5.84466e-19
ExecutionTime = 0.72 s  ClockTime = 1 s

Time = 0.51625

Courant Number mean: 0.225835 max: 0.98166
smoothSolver:  Solving for Ux, Initial residual = 2.80356e-06, Final residual = 2.80356e-06, No Iterations 0
smoothSolver:  Solving for Uy, Initial residual = 7.32933e-06, Final residual = 7.32933e-06, No Iterations 0
DICPCG:  Solving for p, Initial residual = 1.19538e-06, Final residual = 7.01096e-07, No Iterations 1
time step continuity errors : sum local = 1.02789e-10, global = -1.47718e-20, cumulative = -5.99238e-19
DICPCG:  Solving for p, Initial residual = 1.25959e-06, Final residual = 6.98558e-07, No Iterations 1
time step continuity errors : sum local = 1.02422e-10, global = 1.25541e-19, cumulative = -4.73696e-19
ExecutionTime = 0.73 s  ClockTime = 1 s

Time = 0.516875

Courant Number mean: 0.225836 max: 0.98166
smoothSolver:  Solving for Ux, Initial residual = 2.80075e-06, Final residual = 2.80075e-06, No Iterations 0
smoothSolver:  Solving for Uy, Initial residual = 7.32192e-06, Final residual = 7.32192e-06, No Iterations 0
DICPCG:  Solving for p, Initial residual = 1.22286e-06, Final residual = 7.23817e-07, No Iterations 1
time step continuity errors : sum local = 1.06065e-10, global = -3.22034e-20, cumulative = -5.059e-19
DICPCG:  Solving for p, Initial residual = 1.22048e-06, Final residual = 7.34189e-07, No Iterations 1
time step continuity errors : sum local = 1.07556e-10, global = 1.04692e-19, cumulative = -4.01208e-19
ExecutionTime = 0.75 s  ClockTime = 1 s

Time = 0.5175

Courant Number mean: 0.225836 max: 0.98166
smoothSolver:  Solving for Ux, Initial residual = 2.79783e-06, Final residual = 2.79783e-06, No Iterations 0
smoothSolver:  Solving for Uy, Initial residual = 7.31457e-06, Final residual = 7.31457e-06, No Iterations 0
DICPCG:  Solving for p, Initial residual = 1.20891e-06, Final residual = 7.4837e-07, No Iterations 1
time step continuity errors : sum local = 1.09598e-10, global = -5.10643e-20, cumulative = -4.52272e-19
DICPCG:  Solving for p, Initial residual = 1.20359e-06, Final residual = 7.61951e-07, No Iterations 1
time step continuity errors : sum local = 1.11554e-10, global = -9.2977e-23, cumulative = -4.52365e-19
ExecutionTime = 0.76 s  ClockTime = 1 s

Time = 0.518125

Courant Number mean: 0.225836 max: 0.98166
smoothSolver:  Solving for Ux, Initial residual = 2.7948e-06, Final residual = 2.7948e-06, No Iterations 0
smoothSolver:  Solving for Uy, Initial residual = 7.30733e-06, Final residual = 7.30733e-06, No Iterations 0
DICPCG:  Solving for p, Initial residual = 1.20241e-06, Final residual = 7.76366e-07, No Iterations 1
time step continuity errors : sum local = 1.13631e-10, global = 1.75897e-19, cumulative = -2.76468e-19
DICPCG:  Solving for p, Initial residual = 1.20383e-06, Final residual = 7.94358e-07, No Iterations 1
time step continuity errors : sum local = 1.16227e-10, global = -1.0143e-20, cumulative = -2.86611e-19
ExecutionTime = 0.78 s  ClockTime = 1 s

Time = 0.51875

Courant Number mean: 0.225836 max: 0.98166
smoothSolver:  Solving for Ux, Initial residual = 2.79166e-06, Final residual = 2.79166e-06, No Iterations 0
smoothSolver:  Solving for Uy, Initial residual = 7.3002e-06, Final residual = 7.3002e-06, No Iterations 0
DICPCG:  Solving for p, Initial residual = 1.21163e-06, Final residual = 8.15995e-07, No Iterations 1
time step continuity errors : sum local = 1.19349e-10, global = -8.1876e-20, cumulative = -3.68487e-19
DICPCG:  Solving for p, Initial residual = 1.22389e-06, Final residual = 8.42341e-07, No Iterations 1
time step continuity errors : sum local = 1.23153e-10, global = -7.55501e-20, cumulative = -4.44037e-19
ExecutionTime = 0.79 s  ClockTime = 1 s

Time = 0.519375

Courant Number mean: 0.225836 max: 0.98166
smoothSolver:  Solving for Ux, Initial residual = 2.78844e-06, Final residual = 2.78844e-06, No Iterations 0
smoothSolver:  Solving for Uy, Initial residual = 7.29322e-06, Final residual = 7.29322e-06, No Iterations 0
DICPCG:  Solving for p, Initial residual = 1.24366e-06, Final residual = 8.74037e-07, No Iterations 1
time step continuity errors : sum local = 1.27731e-10, global = 7.01972e-20, cumulative = -3.7384e-19
DICPCG:  Solving for p, Initial residual = 1.26847e-06, Final residual = 9.09594e-07, No Iterations 1
time step continuity errors : sum local = 1.32868e-10, global = -2.2515e-21, cumulative = -3.76091e-19
ExecutionTime = 0.8 s  ClockTime = 1 s

Time = 0.52

Courant Number mean: 0.225836 max: 0.98166
smoothSolver:  Solving for Ux, Initial residual = 2.78515e-06, Final residual = 2.78515e-06, No Iterations 0
smoothSolver:  Solving for Uy, Initial residual = 7.28641e-06, Final residual = 7.28641e-06, No Iterations 0
DICPCG:  Solving for p, Initial residual = 1.3002e-06, Final residual = 9.48853e-07, No Iterations 1
time step continuity errors : sum local = 1.3854e-10, global = -3.02565e-20, cumulative = -4.06348e-19
DICPCG:  Solving for p, Initial residual = 1.33731e-06, Final residual = 9.89253e-07, No Iterations 1
time step continuity errors : sum local = 1.44379e-10, global = 5.58921e-20, cumulative = -3.50456e-19
ExecutionTime = 0.81 s  ClockTime = 1 s

Time = 0.520625

Courant Number mean: 0.225836 max: 0.98166
smoothSolver:  Solving for Ux, Initial residual = 2.78181e-06, Final residual = 2.78181e-06, No Iterations 0
smoothSolver:  Solving for Uy, Initial residual = 7.27977e-06, Final residual = 7.27977e-06, No Iterations 0
DICPCG:  Solving for p, Initial residual = 1.37886e-06, Final residual = 9.94469e-07, No Iterations 28
time step continuity errors : sum local = 1.45352e-10, global = -1.05724e-19, cumulative = -4.5618e-19
DICPCG:  Solving for p, Initial residual = 1.8287e-06, Final residual = 9.53134e-07, No Iterations 20
time step continuity errors : sum local = 1.38712e-10, global = 9.39786e-20, cumulative = -3.62201e-19
ExecutionTime = 0.84 s  ClockTime = 1 s

Time = 0.52125

Courant Number mean: 0.225836 max: 0.98166
smoothSolver:  Solving for Ux, Initial residual = 2.73898e-06, Final residual = 2.73898e-06, No Iterations 0
smoothSolver:  Solving for Uy, Initial residual = 7.43411e-06, Final residual = 7.43411e-06, No Iterations 0
DICPCG:  Solving for p, Initial residual = 1.79774e-06, Final residual = 9.28113e-07, No Iterations 36
time step continuity errors : sum local = 1.34081e-10, global = -4.33728e-20, cumulative = -4.05574e-19
DICPCG:  Solving for p, Initial residual = 1.65676e-06, Final residual = 8.16144e-07, No Iterations 18
time step continuity errors : sum local = 1.18532e-10, global = -2.59532e-20, cumulative = -4.31527e-19
ExecutionTime = 0.87 s  ClockTime = 1 s

Time = 0.521875

Courant Number mean: 0.225836 max: 0.98166
smoothSolver:  Solving for Ux, Initial residual = 2.77958e-06, Final residual = 2.77958e-06, No Iterations 0
smoothSolver:  Solving for Uy, Initial residual = 7.18836e-06, Final residual = 7.18836e-06, No Iterations 0
DICPCG:  Solving for p, Initial residual = 1.47285e-06, Final residual = 8.69783e-07, No Iterations 10
time step continuity errors : sum local = 1.27076e-10, global = -2.13937e-20, cumulative = -4.52921e-19
DICPCG:  Solving for p, Initial residual = 1.56894e-06, Final residual = 9.9583e-07, No Iterations 6
time step continuity errors : sum local = 1.45604e-10, global = 8.65685e-20, cumulative = -3.66352e-19
ExecutionTime = 0.89 s  ClockTime = 2 s

Time = 0.5225

Courant Number mean: 0.225836 max: 0.98166
smoothSolver:  Solving for Ux, Initial residual = 2.77614e-06, Final residual = 2.77614e-06, No Iterations 0
smoothSolver:  Solving for Uy, Initial residual = 7.25957e-06, Final residual = 7.25957e-06, No Iterations 0
DICPCG:  Solving for p, Initial residual = 1.59712e-06, Final residual = 9.99292e-07, No Iterations 3
time step continuity errors : sum local = 1.45981e-10, global = 4.26612e-20, cumulative = -3.23691e-19
DICPCG:  Solving for p, Initial residual = 1.8345e-06, Final residual = 8.80575e-07, No Iterations 2
time step continuity errors : sum local = 1.29036e-10, global = -7.48004e-21, cumulative = -3.31171e-19
ExecutionTime = 0.9 s  ClockTime = 2 s

Time = 0.523125

Courant Number mean: 0.225836 max: 0.98166
smoothSolver:  Solving for Ux, Initial residual = 2.77031e-06, Final residual = 2.77031e-06, No Iterations 0
smoothSolver:  Solving for Uy, Initial residual = 7.25834e-06, Final residual = 7.25834e-06, No Iterations 0
DICPCG:  Solving for p, Initial residual = 1.76755e-06, Final residual = 8.22807e-07, No Iterations 2
time step continuity errors : sum local = 1.20681e-10, global = -1.83974e-19, cumulative = -5.15146e-19
DICPCG:  Solving for p, Initial residual = 1.4989e-06, Final residual = 9.75767e-07, No Iterations 2
time step continuity errors : sum local = 1.42866e-10, global = 7.01288e-20, cumulative = -4.45017e-19
ExecutionTime = 0.92 s  ClockTime = 2 s

Time = 0.52375

Courant Number mean: 0.225836 max: 0.98166
smoothSolver:  Solving for Ux, Initial residual = 2.76692e-06, Final residual = 2.76692e-06, No Iterations 0
smoothSolver:  Solving for Uy, Initial residual = 7.25535e-06, Final residual = 7.25535e-06, No Iterations 0
DICPCG:  Solving for p, Initial residual = 1.73086e-06, Final residual = 7.08938e-07, No Iterations 29
time step continuity errors : sum local = 1.03771e-10, global = 3.008e-20, cumulative = -4.14937e-19
DICPCG:  Solving for p, Initial residual = 1.3999e-06, Final residual = 9.11949e-07, No Iterations 17
time step continuity errors : sum local = 1.32294e-10, global = 7.50001e-20, cumulative = -3.39937e-19
ExecutionTime = 0.95 s  ClockTime = 2 s

Time = 0.524375

Courant Number mean: 0.225836 max: 0.98166
smoothSolver:  Solving for Ux, Initial residual = 2.72601e-06, Final residual = 2.72601e-06, No Iterations 0
smoothSolver:  Solving for Uy, Initial residual = 7.31833e-06, Final residual = 7.31833e-06, No Iterations 0
DICPCG:  Solving for p, Initial residual = 1.66726e-06, Final residual = 9.53661e-07, No Iterations 32
time step continuity errors : sum local = 1.3855e-10, global = -9.7578e-20, cumulative = -4.37515e-19
DICPCG:  Solving for p, Initial residual = 1.62039e-06, Final residual = 7.82115e-07, No Iterations 16
time step continuity errors : sum local = 1.13844e-10, global = -8.63447e-20, cumulative = -5.2386e-19
ExecutionTime = 0.98 s  ClockTime = 2 s

Time = 0.525

Courant Number mean: 0.225836 max: 0.98166
smoothSolver:  Solving for Ux, Initial residual = 2.7782e-06, Final residual = 2.7782e-06, No Iterations 0
smoothSolver:  Solving for Uy, Initial residual = 7.18645e-06, Final residual = 7.18645e-06, No Iterations 0
DICPCG:  Solving for p, Initial residual = 1.41536e-06, Final residual = 7.94826e-07, No Iterations 8
time step continuity errors : sum local = 1.15686e-10, global = -4.46786e-20, cumulative = -5.68538e-19
DICPCG:  Solving for p, Initial residual = 1.39264e-06, Final residual = 8.17957e-07, No Iterations 5
time step continuity errors : sum local = 1.19224e-10, global = -1.2763e-19, cumulative = -6.96168e-19
ExecutionTime = 0.99 s  ClockTime = 2 s

Time = 0.525625

Courant Number mean: 0.225836 max: 0.98166
smoothSolver:  Solving for Ux, Initial residual = 2.76326e-06, Final residual = 2.76326e-06, No Iterations 0
smoothSolver:  Solving for Uy, Initial residual = 7.21506e-06, Final residual = 7.21506e-06, No Iterations 0
DICPCG:  Solving for p, Initial residual = 1.40337e-06, Final residual = 7.84857e-07, No Iterations 3
time step continuity errors : sum local = 1.14824e-10, global = -1.24363e-19, cumulative = -8.20531e-19
DICPCG:  Solving for p, Initial residual = 1.37403e-06, Final residual = 8.45735e-07, No Iterations 2
time step continuity errors : sum local = 1.23586e-10, global = -9.00517e-20, cumulative = -9.10583e-19
ExecutionTime = 1.01 s  ClockTime = 2 s

Time = 0.52625

Courant Number mean: 0.225837 max: 0.98166
smoothSolver:  Solving for Ux, Initial residual = 2.75876e-06, Final residual = 2.75876e-06, No Iterations 0
smoothSolver:  Solving for Uy, Initial residual = 7.20902e-06, Final residual = 7.20902e-06, No Iterations 0
DICPCG:  Solving for p, Initial residual = 1.66e-06, Final residual = 8.99742e-07, No Iterations 1
time step continuity errors : sum local = 1.31314e-10, global = -1.93297e-20, cumulative = -9.29913e-19
DICPCG:  Solving for p, Initial residual = 1.30656e-06, Final residual = 7.75246e-07, No Iterations 1
time step continuity errors : sum local = 1.13403e-10, global = -1.29846e-19, cumulative = -1.05976e-18
ExecutionTime = 1.02 s  ClockTime = 2 s

Time = 0.526875

Courant Number mean: 0.225837 max: 0.98166
smoothSolver:  Solving for Ux, Initial residual = 2.75604e-06, Final residual = 2.75604e-06, No Iterations 0
smoothSolver:  Solving for Uy, Initial residual = 7.20241e-06, Final residual = 7.20241e-06, No Iterations 0
DICPCG:  Solving for p, Initial residual = 1.03432e-06, Final residual = 9.20855e-07, No Iterations 1
time step continuity errors : sum local = 1.34465e-10, global = -4.0326e-20, cumulative = -1.10009e-18
DICPCG:  Solving for p, Initial residual = 1.13622e-06, Final residual = 9.34239e-07, No Iterations 1
time step continuity errors : sum local = 1.36426e-10, global = -1.10967e-19, cumulative = -1.21105e-18
ExecutionTime = 1.03 s  ClockTime = 2 s

Time = 0.5275

Courant Number mean: 0.225837 max: 0.98166
smoothSolver:  Solving for Ux, Initial residual = 2.75383e-06, Final residual = 2.75383e-06, No Iterations 0
smoothSolver:  Solving for Uy, Initial residual = 7.19692e-06, Final residual = 7.19692e-06, No Iterations 0
DICPCG:  Solving for p, Initial residual = 1.13059e-06, Final residual = 9.5664e-07, No Iterations 35
time step continuity errors : sum local = 1.40191e-10, global = -8.72699e-21, cumulative = -1.21978e-18
DICPCG:  Solving for p, Initial residual = 1.78919e-06, Final residual = 9.71658e-07, No Iterations 20
time step continuity errors : sum local = 1.4057e-10, global = -8.70518e-20, cumulative = -1.30683e-18
ExecutionTime = 1.06 s  ClockTime = 2 s

Time = 0.528125

Courant Number mean: 0.225837 max: 0.98166
smoothSolver:  Solving for Ux, Initial residual = 2.69387e-06, Final residual = 2.69387e-06, No Iterations 0
smoothSolver:  Solving for Uy, Initial residual = 7.31426e-06, Final residual = 7.31426e-06, No Iterations 0
DICPCG:  Solving for p, Initial residual = 1.73885e-06, Final residual = 9.99706e-07, No Iterations 27
time step continuity errors : sum local = 1.45027e-10, global = 4.35972e-20, cumulative = -1.26323e-18
DICPCG:  Solving for p, Initial residual = 1.74875e-06, Final residual = 8.56905e-07, No Iterations 14
time step continuity errors : sum local = 1.24327e-10, global = 9.84306e-20, cumulative = -1.1648e-18
ExecutionTime = 1.09 s  ClockTime = 2 s

Time = 0.52875

Courant Number mean: 0.225837 max: 0.98166
smoothSolver:  Solving for Ux, Initial residual = 2.75035e-06, Final residual = 2.75035e-06, No Iterations 0
smoothSolver:  Solving for Uy, Initial residual = 7.08745e-06, Final residual = 7.08745e-06, No Iterations 0
DICPCG:  Solving for p, Initial residual = 1.59142e-06, Final residual = 9.88014e-07, No Iterations 8
time step continuity errors : sum local = 1.43373e-10, global = -7.67496e-20, cumulative = -1.24155e-18
DICPCG:  Solving for p, Initial residual = 1.77455e-06, Final residual = 8.27824e-07, No Iterations 5
time step continuity errors : sum local = 1.21029e-10, global = 6.95275e-20, cumulative = -1.17202e-18
ExecutionTime = 1.11 s  ClockTime = 2 s

Time = 0.529375

Courant Number mean: 0.225837 max: 0.98166
smoothSolver:  Solving for Ux, Initial residual = 2.75213e-06, Final residual = 2.75213e-06, No Iterations 0
smoothSolver:  Solving for Uy, Initial residual = 7.15639e-06, Final residual = 7.15639e-06, No Iterations 0
DICPCG:  Solving for p, Initial residual = 1.49899e-06, Final residual = 8.95509e-07, No Iterations 3
time step continuity errors : sum local = 1.30381e-10, global = 1.41057e-19, cumulative = -1.03097e-18
DICPCG:  Solving for p, Initial residual = 1.65092e-06, Final residual = 8.09243e-07, No Iterations 2
time step continuity errors : sum local = 1.17841e-10, global = 5.99173e-20, cumulative = -9.7105e-19
ExecutionTime = 1.12 s  ClockTime = 2 s

Time = 0.53

Courant Number mean: 0.225837 max: 0.98166
smoothSolver:  Solving for Ux, Initial residual = 2.74697e-06, Final residual = 2.74697e-06, No Iterations 0
smoothSolver:  Solving for Uy, Initial residual = 7.15775e-06, Final residual = 7.15775e-06, No Iterations 0
DICPCG:  Solving for p, Initial residual = 1.65821e-06, Final residual = 9.08286e-07, No Iterations 1
time step continuity errors : sum local = 1.32229e-10, global = -6.72713e-20, cumulative = -1.03832e-18
DICPCG:  Solving for p, Initial residual = 1.30384e-06, Final residual = 6.9414e-07, No Iterations 1
time step continuity errors : sum local = 1.01352e-10, global = 5.77823e-20, cumulative = -9.80539e-19
ExecutionTime = 1.13 s  ClockTime = 2 s

Time = 0.530625

Courant Number mean: 0.225837 max: 0.98166
smoothSolver:  Solving for Ux, Initial residual = 2.74434e-06, Final residual = 2.74434e-06, No Iterations 0
smoothSolver:  Solving for Uy, Initial residual = 7.15198e-06, Final residual = 7.15198e-06, No Iterations 0
DICPCG:  Solving for p, Initial residual = 9.55972e-07, Final residual = 9.55972e-07, No Iterations 0
time step continuity errors : sum local = 1.39183e-10, global = -7.72541e-20, cumulative = -1.05779e-18
DICPCG:  Solving for p, Initial residual = 1.20755e-06, Final residual = 9.17312e-07, No Iterations 23
time step continuity errors : sum local = 1.35515e-10, global = 8.50024e-20, cumulative = -9.72791e-19
ExecutionTime = 1.15 s  ClockTime = 2 s

Time = 0.53125

Courant Number mean: 0.225837 max: 0.98166
smoothSolver:  Solving for Ux, Initial residual = 2.59458e-06, Final residual = 2.59458e-06, No Iterations 0
smoothSolver:  Solving for Uy, Initial residual = 7.61516e-06, Final residual = 7.61516e-06, No Iterations 0
DICPCG:  Solving for p, Initial residual = 1.7562e-06, Final residual = 9.16742e-07, No Iterations 20
time step continuity errors : sum local = 1.34094e-10, global = 2.03454e-19, cumulative = -7.69337e-19
DICPCG:  Solving for p, Initial residual = 1.68895e-06, Final residual = 9.88936e-07, No Iterations 19
time step continuity errors : sum local = 1.4371e-10, global = 2.00909e-19, cumulative = -5.68428e-19
ExecutionTime = 1.18 s  ClockTime = 2 s

Time = 0.531875

Courant Number mean: 0.225837 max: 0.98166
smoothSolver:  Solving for Ux, Initial residual = 2.72073e-06, Final residual = 2.72073e-06, No Iterations 0
smoothSolver:  Solving for Uy, Initial residual = 7.18436e-06, Final residual = 7.18436e-06, No Iterations 0
DICPCG:  Solving for p, Initial residual = 1.71813e-06, Final residual = 7.72942e-07, No Iterations 10
time step continuity errors : sum local = 1.12398e-10, global = -1.18825e-20, cumulative = -5.80311e-19
DICPCG:  Solving for p, Initial residual = 1.47651e-06, Final residual = 8.76918e-07, No Iterations 5
time step continuity errors : sum local = 1.27102e-10, global = -6.86934e-20, cumulative = -6.49004e-19
ExecutionTime = 1.2 s  ClockTime = 2 s

Time = 0.5325

Courant Number mean: 0.225837 max: 0.98166
smoothSolver:  Solving for Ux, Initial residual = 2.72905e-06, Final residual = 2.72905e-06, No Iterations 0
smoothSolver:  Solving for Uy, Initial residual = 7.15971e-06, Final residual = 7.15971e-06, No Iterations 0
DICPCG:  Solving for p, Initial residual = 1.58953e-06, Final residual = 8.75574e-07, No Iterations 3
time step continuity errors : sum local = 1.26778e-10, global = -9.73907e-21, cumulative = -6.58743e-19
DICPCG:  Solving for p, Initial residual = 1.63269e-06, Final residual = 8.46145e-07, No Iterations 2
time step continuity errors : sum local = 1.22608e-10, global = -3.8656e-22, cumulative = -6.5913e-19
ExecutionTime = 1.21 s  ClockTime = 2 s

Time = 0.533125

Courant Number mean: 0.225837 max: 0.98166
smoothSolver:  Solving for Ux, Initial residual = 2.72444e-06, Final residual = 2.72444e-06, No Iterations 0
smoothSolver:  Solving for Uy, Initial residual = 7.15441e-06, Final residual = 7.15441e-06, No Iterations 0
DICPCG:  Solving for p, Initial residual = 1.65184e-06, Final residual = 9.05261e-07, No Iterations 1
time step continuity errors : sum local = 1.3084e-10, global = -6.92891e-20, cumulative = -7.28419e-19
DICPCG:  Solving for p, Initial residual = 1.32895e-06, Final residual = 7.79542e-07, No Iterations 1
time step continuity errors : sum local = 1.12681e-10, global = 1.87908e-20, cumulative = -7.09628e-19
ExecutionTime = 1.22 s  ClockTime = 2 s

Time = 0.53375

Courant Number mean: 0.225837 max: 0.98166
smoothSolver:  Solving for Ux, Initial residual = 2.72155e-06, Final residual = 2.72155e-06, No Iterations 0
smoothSolver:  Solving for Uy, Initial residual = 7.14645e-06, Final residual = 7.14645e-06, No Iterations 0
DICPCG:  Solving for p, Initial residual = 1.01891e-06, Final residual = 8.66515e-07, No Iterations 1
time step continuity errors : sum local = 1.25229e-10, global = 2.13077e-19, cumulative = -4.96551e-19
DICPCG:  Solving for p, Initial residual = 1.02746e-06, Final residual = 8.88232e-07, No Iterations 1
time step continuity errors : sum local = 1.28373e-10, global = -1.07812e-19, cumulative = -6.04363e-19
ExecutionTime = 1.23 s  ClockTime = 2 s

Time = 0.534375

Courant Number mean: 0.225837 max: 0.98166
smoothSolver:  Solving for Ux, Initial residual = 2.71915e-06, Final residual = 2.71915e-06, No Iterations 0
smoothSolver:  Solving for Uy, Initial residual = 7.13992e-06, Final residual = 7.13992e-06, No Iterations 0
DICPCG:  Solving for p, Initial residual = 1.03609e-06, Final residual = 9.53441e-07, No Iterations 1
time step continuity errors : sum local = 1.37788e-10, global = -1.90578e-20, cumulative = -6.2342e-19
DICPCG:  Solving for p, Initial residual = 1.09326e-06, Final residual = 9.90982e-07, No Iterations 1
time step continuity errors : sum local = 1.43207e-10, global = -1.30312e-19, cumulative = -7.53733e-19
ExecutionTime = 1.25 s  ClockTime = 2 s

Time = 0.535

Courant Number mean: 0.225837 max: 0.98166
smoothSolver:  Solving for Ux, Initial residual = 2.71689e-06, Final residual = 2.71689e-06, No Iterations 0
smoothSolver:  Solving for Uy, Initial residual = 7.13366e-06, Final residual = 7.13366e-06, No Iterations 0
DICPCG:  Solving for p, Initial residual = 1.13408e-06, Final residual = 8.76017e-07, No Iterations 34
time step continuity errors : sum local = 1.30161e-10, global = 1.24618e-19, cumulative = -6.29114e-19
DICPCG:  Solving for p, Initial residual = 1.6827e-06, Final residual = 9.85548e-07, No Iterations 38
time step continuity errors : sum local = 1.45946e-10, global = 1.1396e-19, cumulative = -5.15154e-19
ExecutionTime = 1.29 s  ClockTime = 2 s

Time = 0.535625

Courant Number mean: 0.225837 max: 0.98166
smoothSolver:  Solving for Ux, Initial residual = 2.74626e-06, Final residual = 2.74626e-06, No Iterations 0
smoothSolver:  Solving for Uy, Initial residual = 7.0137e-06, Final residual = 7.0137e-06, No Iterations 0
DICPCG:  Solving for p, Initial residual = 1.73866e-06, Final residual = 9.78608e-07, No Iterations 19
time step continuity errors : sum local = 1.44014e-10, global = -6.17623e-20, cumulative = -5.76916e-19
DICPCG:  Solving for p, Initial residual = 1.69402e-06, Final residual = 8.61343e-07, No Iterations 10
time step continuity errors : sum local = 1.26845e-10, global = 9.57663e-20, cumulative = -4.8115e-19
ExecutionTime = 1.31 s  ClockTime = 2 s

Time = 0.53625

Courant Number mean: 0.225838 max: 0.98166
smoothSolver:  Solving for Ux, Initial residual = 2.69877e-06, Final residual = 2.69877e-06, No Iterations 0
smoothSolver:  Solving for Uy, Initial residual = 7.14186e-06, Final residual = 7.14186e-06, No Iterations 0
DICPCG:  Solving for p, Initial residual = 1.59249e-06, Final residual = 9.41448e-07, No Iterations 5
time step continuity errors : sum local = 1.38188e-10, global = -7.37937e-20, cumulative = -5.54944e-19
DICPCG:  Solving for p, Initial residual = 1.67645e-06, Final residual = 9.689e-07, No Iterations 5
time step continuity errors : sum local = 1.41928e-10, global = 5.1671e-20, cumulative = -5.03273e-19
ExecutionTime = 1.32 s  ClockTime = 2 s

Time = 0.536875

Courant Number mean: 0.225838 max: 0.98166
smoothSolver:  Solving for Ux, Initial residual = 2.69387e-06, Final residual = 2.69387e-06, No Iterations 0
smoothSolver:  Solving for Uy, Initial residual = 7.1373e-06, Final residual = 7.1373e-06, No Iterations 0
DICPCG:  Solving for p, Initial residual = 1.59621e-06, Final residual = 9.16475e-07, No Iterations 3
time step continuity errors : sum local = 1.34168e-10, global = 9.75839e-20, cumulative = -4.05689e-19
DICPCG:  Solving for p, Initial residual = 1.77452e-06, Final residual = 7.82033e-07, No Iterations 2
time step continuity errors : sum local = 1.14842e-10, global = -3.24096e-20, cumulative = -4.38099e-19
ExecutionTime = 1.34 s  ClockTime = 2 s

Time = 0.5375

Courant Number mean: 0.225838 max: 0.98166
smoothSolver:  Solving for Ux, Initial residual = 2.68987e-06, Final residual = 2.68987e-06, No Iterations 0
smoothSolver:  Solving for Uy, Initial residual = 7.1361e-06, Final residual = 7.1361e-06, No Iterations 0
DICPCG:  Solving for p, Initial residual = 1.586e-06, Final residual = 8.79779e-07, No Iterations 1
time step continuity errors : sum local = 1.28924e-10, global = 1.72507e-20, cumulative = -4.20848e-19
DICPCG:  Solving for p, Initial residual = 1.24726e-06, Final residual = 6.68876e-07, No Iterations 1
time step continuity errors : sum local = 9.83494e-11, global = -1.69311e-21, cumulative = -4.22541e-19
ExecutionTime = 1.35 s  ClockTime = 2 s

Time = 0.538125

Courant Number mean: 0.225838 max: 0.98166
smoothSolver:  Solving for Ux, Initial residual = 2.68724e-06, Final residual = 2.68724e-06, No Iterations 0
smoothSolver:  Solving for Uy, Initial residual = 7.12927e-06, Final residual = 7.12927e-06, No Iterations 0
DICPCG:  Solving for p, Initial residual = 8.07032e-07, Final residual = 8.07032e-07, No Iterations 0
time step continuity errors : sum local = 1.18306e-10, global = -1.61649e-19, cumulative = -5.8419e-19
DICPCG:  Solving for p, Initial residual = 9.66623e-07, Final residual = 9.66623e-07, No Iterations 0
time step continuity errors : sum local = 1.41358e-10, global = -7.36288e-20, cumulative = -6.57819e-19
ExecutionTime = 1.36 s  ClockTime = 2 s

Time = 0.53875

Courant Number mean: 0.225838 max: 0.98166
smoothSolver:  Solving for Ux, Initial residual = 2.68517e-06, Final residual = 2.68517e-06, No Iterations 0
smoothSolver:  Solving for Uy, Initial residual = 7.12293e-06, Final residual = 7.12293e-06, No Iterations 0
DICPCG:  Solving for p, Initial residual = 1.14628e-06, Final residual = 8.62806e-07, No Iterations 1
time step continuity errors : sum local = 1.26306e-10, global = -4.82721e-20, cumulative = -7.06091e-19
DICPCG:  Solving for p, Initial residual = 1.08673e-06, Final residual = 8.13726e-07, No Iterations 1
time step continuity errors : sum local = 1.19174e-10, global = -8.22683e-20, cumulative = -7.8836e-19
ExecutionTime = 1.37 s  ClockTime = 2 s

Time = 0.539375

Courant Number mean: 0.225838 max: 0.98166
smoothSolver:  Solving for Ux, Initial residual = 2.68312e-06, Final residual = 2.68312e-06, No Iterations 0
smoothSolver:  Solving for Uy, Initial residual = 7.11738e-06, Final residual = 7.11738e-06, No Iterations 0
DICPCG:  Solving for p, Initial residual = 9.17764e-07, Final residual = 9.17764e-07, No Iterations 0
time step continuity errors : sum local = 1.34193e-10, global = 1.86236e-19, cumulative = -6.02124e-19
DICPCG:  Solving for p, Initial residual = 1.00605e-06, Final residual = 8.86325e-07, No Iterations 1
time step continuity errors : sum local = 1.29622e-10, global = -3.27203e-20, cumulative = -6.34844e-19
ExecutionTime = 1.38 s  ClockTime = 2 s

Time = 0.54

Courant Number mean: 0.225838 max: 0.98166
smoothSolver:  Solving for Ux, Initial residual = 2.68104e-06, Final residual = 2.68104e-06, No Iterations 0
smoothSolver:  Solving for Uy, Initial residual = 7.11175e-06, Final residual = 7.11175e-06, No Iterations 0
DICPCG:  Solving for p, Initial residual = 1.04919e-06, Final residual = 8.71662e-07, No Iterations 1
time step continuity errors : sum local = 1.27481e-10, global = 1.11335e-19, cumulative = -5.23509e-19
DICPCG:  Solving for p, Initial residual = 9.87571e-07, Final residual = 9.87571e-07, No Iterations 0
time step continuity errors : sum local = 1.44213e-10, global = 1.77723e-19, cumulative = -3.45786e-19
ExecutionTime = 1.39 s  ClockTime = 2 s

Time = 0.540625

Courant Number mean: 0.225838 max: 0.98166
smoothSolver:  Solving for Ux, Initial residual = 2.67879e-06, Final residual = 2.67879e-06, No Iterations 0
smoothSolver:  Solving for Uy, Initial residual = 7.10538e-06, Final residual = 7.10538e-06, No Iterations 0
DICPCG:  Solving for p, Initial residual = 1.08115e-06, Final residual = 9.46958e-07, No Iterations 1
time step continuity errors : sum local = 1.38328e-10, global = 1.64183e-20, cumulative = -3.29368e-19
DICPCG:  Solving for p, Initial residual = 1.13548e-06, Final residual = 9.62125e-07, No Iterations 1
time step continuity errors : sum local = 1.40502e-10, global = 2.4882e-20, cumulative = -3.04486e-19
ExecutionTime = 1.4 s  ClockTime = 2 s

Time = 0.54125

Courant Number mean: 0.225838 max: 0.98166
smoothSolver:  Solving for Ux, Initial residual = 2.67649e-06, Final residual = 2.67649e-06, No Iterations 0
smoothSolver:  Solving for Uy, Initial residual = 7.0998e-06, Final residual = 7.0998e-06, No Iterations 0
DICPCG:  Solving for p, Initial residual = 1.10673e-06, Final residual = 9.82091e-07, No Iterations 30
time step continuity errors : sum local = 1.45349e-10, global = 3.61296e-20, cumulative = -2.68356e-19
DICPCG:  Solving for p, Initial residual = 1.89268e-06, Final residual = 9.99837e-07, No Iterations 41
time step continuity errors : sum local = 1.47111e-10, global = 9.29137e-20, cumulative = -1.75443e-19
ExecutionTime = 1.44 s  ClockTime = 2 s

Time = 0.541875

Courant Number mean: 0.225838 max: 0.98166
smoothSolver:  Solving for Ux, Initial residual = 2.6534e-06, Final residual = 2.6534e-06, No Iterations 0
smoothSolver:  Solving for Uy, Initial residual = 7.16448e-06, Final residual = 7.16448e-06, No Iterations 0
DICPCG:  Solving for p, Initial residual = 1.75906e-06, Final residual = 9.5888e-07, No Iterations 17
time step continuity errors : sum local = 1.40703e-10, global = -1.17693e-19, cumulative = -2.93136e-19
DICPCG:  Solving for p, Initial residual = 1.70402e-06, Final residual = 9.16643e-07, No Iterations 9
time step continuity errors : sum local = 1.33736e-10, global = -6.87068e-21, cumulative = -3.00006e-19
ExecutionTime = 1.47 s  ClockTime = 2 s

Time = 0.5425

Courant Number mean: 0.225838 max: 0.98166
smoothSolver:  Solving for Ux, Initial residual = 2.67482e-06, Final residual = 2.67482e-06, No Iterations 0
smoothSolver:  Solving for Uy, Initial residual = 7.07898e-06, Final residual = 7.07898e-06, No Iterations 0
DICPCG:  Solving for p, Initial residual = 1.68762e-06, Final residual = 9.04371e-07, No Iterations 5
time step continuity errors : sum local = 1.31559e-10, global = -1.59509e-19, cumulative = -4.59516e-19
DICPCG:  Solving for p, Initial residual = 1.63124e-06, Final residual = 9.74301e-07, No Iterations 3
time step continuity errors : sum local = 1.41477e-10, global = 4.86168e-20, cumulative = -4.10899e-19
ExecutionTime = 1.48 s  ClockTime = 2 s

Time = 0.543125

Courant Number mean: 0.225838 max: 0.98166
smoothSolver:  Solving for Ux, Initial residual = 2.66919e-06, Final residual = 2.66919e-06, No Iterations 0
smoothSolver:  Solving for Uy, Initial residual = 7.08397e-06, Final residual = 7.08397e-06, No Iterations 0
DICPCG:  Solving for p, Initial residual = 1.80031e-06, Final residual = 9.7304e-07, No Iterations 2
time step continuity errors : sum local = 1.41351e-10, global = 4.06338e-20, cumulative = -3.70265e-19
DICPCG:  Solving for p, Initial residual = 1.92135e-06, Final residual = 7.81717e-07, No Iterations 2
time step continuity errors : sum local = 1.13206e-10, global = -2.72165e-21, cumulative = -3.72987e-19
ExecutionTime = 1.5 s  ClockTime = 2 s

Time = 0.54375

Courant Number mean: 0.225838 max: 0.98166
smoothSolver:  Solving for Ux, Initial residual = 2.66696e-06, Final residual = 2.66696e-06, No Iterations 0
smoothSolver:  Solving for Uy, Initial residual = 7.07021e-06, Final residual = 7.07021e-06, No Iterations 0
DICPCG:  Solving for p, Initial residual = 1.48644e-06, Final residual = 8.33182e-07, No Iterations 1
time step continuity errors : sum local = 1.20475e-10, global = 7.2896e-20, cumulative = -3.00091e-19
DICPCG:  Solving for p, Initial residual = 1.18667e-06, Final residual = 6.80868e-07, No Iterations 1
time step continuity errors : sum local = 9.84718e-11, global = 1.23142e-19, cumulative = -1.76949e-19
ExecutionTime = 1.51 s  ClockTime = 2 s

Time = 0.544375

Courant Number mean: 0.225838 max: 0.98166
smoothSolver:  Solving for Ux, Initial residual = 2.66444e-06, Final residual = 2.66444e-06, No Iterations 0
smoothSolver:  Solving for Uy, Initial residual = 7.06198e-06, Final residual = 7.06198e-06, No Iterations 0
DICPCG:  Solving for p, Initial residual = 8.22606e-07, Final residual = 8.22606e-07, No Iterations 0
time step continuity errors : sum local = 1.18883e-10, global = 6.98184e-20, cumulative = -1.0713e-19
DICPCG:  Solving for p, Initial residual = 9.76381e-07, Final residual = 9.76381e-07, No Iterations 0
time step continuity errors : sum local = 1.41058e-10, global = 1.39514e-19, cumulative = 3.23841e-20
ExecutionTime = 1.52 s  ClockTime = 2 s

Time = 0.545

Courant Number mean: 0.225838 max: 0.98166
smoothSolver:  Solving for Ux, Initial residual = 2.66234e-06, Final residual = 2.66234e-06, No Iterations 0
smoothSolver:  Solving for Uy, Initial residual = 7.05571e-06, Final residual = 7.05571e-06, No Iterations 0
DICPCG:  Solving for p, Initial residual = 1.13487e-06, Final residual = 9.19682e-07, No Iterations 1
time step continuity errors : sum local = 1.32819e-10, global = -7.57659e-20, cumulative = -4.33819e-20
DICPCG:  Solving for p, Initial residual = 1.19096e-06, Final residual = 9.12478e-07, No Iterations 1
time step continuity errors : sum local = 1.31812e-10, global = -5.28026e-20, cumulative = -9.61844e-20
ExecutionTime = 1.53 s  ClockTime = 2 s

Time = 0.545625

Courant Number mean: 0.225839 max: 0.98166
smoothSolver:  Solving for Ux, Initial residual = 2.66023e-06, Final residual = 2.66023e-06, No Iterations 0
smoothSolver:  Solving for Uy, Initial residual = 7.04914e-06, Final residual = 7.04914e-06, No Iterations 0
DICPCG:  Solving for p, Initial residual = 1.05534e-06, Final residual = 9.99163e-07, No Iterations 1
time step continuity errors : sum local = 1.44357e-10, global = -2.1192e-20, cumulative = -1.17376e-19
DICPCG:  Solving for p, Initial residual = 1.14188e-06, Final residual = 9.62694e-07, No Iterations 28
time step continuity errors : sum local = 1.45907e-10, global = -1.16878e-19, cumulative = -2.34254e-19
ExecutionTime = 1.56 s  ClockTime = 2 s

Time = 0.54625

Courant Number mean: 0.225839 max: 0.98166
smoothSolver:  Solving for Ux, Initial residual = 2.67099e-06, Final residual = 2.67099e-06, No Iterations 0
smoothSolver:  Solving for Uy, Initial residual = 7.01675e-06, Final residual = 7.01675e-06, No Iterations 0
DICPCG:  Solving for p, Initial residual = 1.92995e-06, Final residual = 9.835e-07, No Iterations 43
time step continuity errors : sum local = 1.47036e-10, global = -1.16373e-19, cumulative = -3.50628e-19
DICPCG:  Solving for p, Initial residual = 1.75735e-06, Final residual = 9.46851e-07, No Iterations 13
time step continuity errors : sum local = 1.4004e-10, global = 1.62265e-20, cumulative = -3.34401e-19
ExecutionTime = 1.59 s  ClockTime = 2 s

Time = 0.546875

Courant Number mean: 0.225839 max: 0.98166
smoothSolver:  Solving for Ux, Initial residual = 2.6632e-06, Final residual = 2.6632e-06, No Iterations 0
smoothSolver:  Solving for Uy, Initial residual = 7.04103e-06, Final residual = 7.04103e-06, No Iterations 0
DICPCG:  Solving for p, Initial residual = 1.64819e-06, Final residual = 9.21283e-07, No Iterations 8
time step continuity errors : sum local = 1.35641e-10, global = -5.6546e-20, cumulative = -3.90947e-19
DICPCG:  Solving for p, Initial residual = 1.61464e-06, Final residual = 9.67963e-07, No Iterations 4
time step continuity errors : sum local = 1.4242e-10, global = 8.07986e-21, cumulative = -3.82868e-19
ExecutionTime = 1.61 s  ClockTime = 2 s

Time = 0.5475

Courant Number mean: 0.225839 max: 0.98166
smoothSolver:  Solving for Ux, Initial residual = 2.65381e-06, Final residual = 2.65381e-06, No Iterations 0
smoothSolver:  Solving for Uy, Initial residual = 7.03532e-06, Final residual = 7.03532e-06, No Iterations 0
DICPCG:  Solving for p, Initial residual = 1.75511e-06, Final residual = 9.40282e-07, No Iterations 3
time step continuity errors : sum local = 1.38507e-10, global = -2.38411e-21, cumulative = -3.85252e-19
DICPCG:  Solving for p, Initial residual = 1.64434e-06, Final residual = 8.9031e-07, No Iterations 2
time step continuity errors : sum local = 1.307e-10, global = -2.51992e-20, cumulative = -4.10451e-19
ExecutionTime = 1.62 s  ClockTime = 2 s

Time = 0.548125

Courant Number mean: 0.225839 max: 0.98166
smoothSolver:  Solving for Ux, Initial residual = 2.64791e-06, Final residual = 2.64791e-06, No Iterations 0
smoothSolver:  Solving for Uy, Initial residual = 7.02328e-06, Final residual = 7.02328e-06, No Iterations 0
DICPCG:  Solving for p, Initial residual = 1.68541e-06, Final residual = 9.24693e-07, No Iterations 2
time step continuity errors : sum local = 1.35615e-10, global = -4.32693e-20, cumulative = -4.5372e-19
DICPCG:  Solving for p, Initial residual = 1.72392e-06, Final residual = 9.16147e-07, No Iterations 1
time step continuity errors : sum local = 1.34527e-10, global = -1.10297e-19, cumulative = -5.64017e-19
ExecutionTime = 1.63 s  ClockTime = 2 s

Time = 0.54875

Courant Number mean: 0.225839 max: 0.98166
smoothSolver:  Solving for Ux, Initial residual = 2.64476e-06, Final residual = 2.64476e-06, No Iterations 0
smoothSolver:  Solving for Uy, Initial residual = 7.01594e-06, Final residual = 7.01594e-06, No Iterations 0
DICPCG:  Solving for p, Initial residual = 1.26313e-06, Final residual = 7.61305e-07, No Iterations 1
time step continuity errors : sum local = 1.12153e-10, global = -5.70449e-22, cumulative = -5.64587e-19
DICPCG:  Solving for p, Initial residual = 9.48658e-07, Final residual = 9.48658e-07, No Iterations 0
time step continuity errors : sum local = 1.39155e-10, global = 3.62694e-22, cumulative = -5.64225e-19
ExecutionTime = 1.64 s  ClockTime = 2 s

Time = 0.549375

Courant Number mean: 0.225839 max: 0.98166
smoothSolver:  Solving for Ux, Initial residual = 2.64239e-06, Final residual = 2.64239e-06, No Iterations 0
smoothSolver:  Solving for Uy, Initial residual = 7.00905e-06, Final residual = 7.00905e-06, No Iterations 0
DICPCG:  Solving for p, Initial residual = 1.14387e-06, Final residual = 9.29024e-07, No Iterations 1
time step continuity errors : sum local = 1.36204e-10, global = 5.10191e-20, cumulative = -5.13206e-19
DICPCG:  Solving for p, Initial residual = 1.18061e-06, Final residual = 8.9037e-07, No Iterations 1
time step continuity errors : sum local = 1.30553e-10, global = -8.07875e-21, cumulative = -5.21284e-19
ExecutionTime = 1.65 s  ClockTime = 2 s

Time = 0.55

Courant Number mean: 0.225839 max: 0.98166
smoothSolver:  Solving for Ux, Initial residual = 2.6399e-06, Final residual = 2.6399e-06, No Iterations 0
smoothSolver:  Solving for Uy, Initial residual = 7.0034e-06, Final residual = 7.0034e-06, No Iterations 0
DICPCG:  Solving for p, Initial residual = 1.08213e-06, Final residual = 9.79887e-07, No Iterations 1
time step continuity errors : sum local = 1.43401e-10, global = -3.50128e-20, cumulative = -5.56297e-19
DICPCG:  Solving for p, Initial residual = 1.19275e-06, Final residual = 9.6021e-07, No Iterations 1
time step continuity errors : sum local = 1.405e-10, global = -4.41188e-20, cumulative = -6.00416e-19
ExecutionTime = 1.67 s  ClockTime = 2 s

Time = 0.550625

Courant Number mean: 0.225839 max: 0.98166
smoothSolver:  Solving for Ux, Initial residual = 2.63721e-06, Final residual = 2.63721e-06, No Iterations 0
smoothSolver:  Solving for Uy, Initial residual = 6.99756e-06, Final residual = 6.99756e-06, No Iterations 0
DICPCG:  Solving for p, Initial residual = 1.17847e-06, Final residual = 9.34448e-07, No Iterations 32
time step continuity errors : sum local = 1.3875e-10, global = -7.89832e-21, cumulative = -6.08314e-19
DICPCG:  Solving for p, Initial residual = 1.8173e-06, Final residual = 9.96453e-07, No Iterations 36
time step continuity errors : sum local = 1.47096e-10, global = 1.15204e-20, cumulative = -5.96794e-19
ExecutionTime = 1.71 s  ClockTime = 2 s

Time = 0.55125

Courant Number mean: 0.225839 max: 0.98166
smoothSolver:  Solving for Ux, Initial residual = 2.68649e-06, Final residual = 2.68649e-06, No Iterations 0
smoothSolver:  Solving for Uy, Initial residual = 6.84195e-06, Final residual = 6.84195e-06, No Iterations 0
DICPCG:  Solving for p, Initial residual = 1.70069e-06, Final residual = 9.61936e-07, No Iterations 19
time step continuity errors : sum local = 1.40826e-10, global = -4.76316e-20, cumulative = -6.44425e-19
DICPCG:  Solving for p, Initial residual = 1.64284e-06, Final residual = 8.11066e-07, No Iterations 10
time step continuity errors : sum local = 1.19181e-10, global = -1.90621e-20, cumulative = -6.63488e-19
ExecutionTime = 1.73 s  ClockTime = 2 s

Time = 0.551875

Courant Number mean: 0.225839 max: 0.98166
smoothSolver:  Solving for Ux, Initial residual = 2.62233e-06, Final residual = 2.62233e-06, No Iterations 0
smoothSolver:  Solving for Uy, Initial residual = 7.00267e-06, Final residual = 7.00267e-06, No Iterations 0
DICPCG:  Solving for p, Initial residual = 1.5035e-06, Final residual = 9.15229e-07, No Iterations 9
time step continuity errors : sum local = 1.32965e-10, global = -1.79272e-20, cumulative = -6.81415e-19
DICPCG:  Solving for p, Initial residual = 1.5289e-06, Final residual = 6.97004e-07, No Iterations 5
time step continuity errors : sum local = 1.01099e-10, global = -1.13687e-19, cumulative = -7.95102e-19
ExecutionTime = 1.75 s  ClockTime = 2 s

Time = 0.5525

Courant Number mean: 0.225839 max: 0.98166
smoothSolver:  Solving for Ux, Initial residual = 2.62039e-06, Final residual = 2.62039e-06, No Iterations 0
smoothSolver:  Solving for Uy, Initial residual = 6.99824e-06, Final residual = 6.99824e-06, No Iterations 0
DICPCG:  Solving for p, Initial residual = 1.3307e-06, Final residual = 8.60564e-07, No Iterations 2
time step continuity errors : sum local = 1.24295e-10, global = 7.95896e-20, cumulative = -7.15512e-19
DICPCG:  Solving for p, Initial residual = 1.46391e-06, Final residual = 7.74192e-07, No Iterations 1
time step continuity errors : sum local = 1.11753e-10, global = 9.5805e-21, cumulative = -7.05932e-19
ExecutionTime = 1.76 s  ClockTime = 2 s

Time = 0.553125

Courant Number mean: 0.225839 max: 0.98166
smoothSolver:  Solving for Ux, Initial residual = 2.6171e-06, Final residual = 2.6171e-06, No Iterations 0
smoothSolver:  Solving for Uy, Initial residual = 6.98884e-06, Final residual = 6.98884e-06, No Iterations 0
DICPCG:  Solving for p, Initial residual = 1.21003e-06, Final residual = 7.9059e-07, No Iterations 1
time step continuity errors : sum local = 1.14175e-10, global = 1.20395e-19, cumulative = -5.85537e-19
DICPCG:  Solving for p, Initial residual = 1.03898e-06, Final residual = 9.05537e-07, No Iterations 1
time step continuity errors : sum local = 1.30873e-10, global = -5.19779e-20, cumulative = -6.37515e-19
ExecutionTime = 1.77 s  ClockTime = 2 s

Time = 0.55375

Courant Number mean: 0.225839 max: 0.98166
smoothSolver:  Solving for Ux, Initial residual = 2.61488e-06, Final residual = 2.61488e-06, No Iterations 0
smoothSolver:  Solving for Uy, Initial residual = 6.98224e-06, Final residual = 6.98224e-06, No Iterations 0
DICPCG:  Solving for p, Initial residual = 1.1298e-06, Final residual = 9.01875e-07, No Iterations 1
time step continuity errors : sum local = 1.30514e-10, global = -1.03371e-19, cumulative = -7.40886e-19
DICPCG:  Solving for p, Initial residual = 1.10451e-06, Final residual = 9.53443e-07, No Iterations 1
time step continuity errors : sum local = 1.38064e-10, global = -1.43524e-19, cumulative = -8.84411e-19
ExecutionTime = 1.78 s  ClockTime = 2 s

Time = 0.554375

Courant Number mean: 0.225839 max: 0.98166
smoothSolver:  Solving for Ux, Initial residual = 2.61275e-06, Final residual = 2.61275e-06, No Iterations 0
smoothSolver:  Solving for Uy, Initial residual = 6.97589e-06, Final residual = 6.97589e-06, No Iterations 0
DICPCG:  Solving for p, Initial residual = 1.13563e-06, Final residual = 9.40521e-07, No Iterations 1
time step continuity errors : sum local = 1.36307e-10, global = 3.97688e-20, cumulative = -8.44642e-19
DICPCG:  Solving for p, Initial residual = 1.11448e-06, Final residual = 9.39272e-07, No Iterations 1
time step continuity errors : sum local = 1.36194e-10, global = 3.81219e-20, cumulative = -8.0652e-19
ExecutionTime = 1.79 s  ClockTime = 2 s

Time = 0.555

Courant Number mean: 0.225839 max: 0.98166
smoothSolver:  Solving for Ux, Initial residual = 2.61066e-06, Final residual = 2.61066e-06, No Iterations 0
smoothSolver:  Solving for Uy, Initial residual = 6.97e-06, Final residual = 6.97e-06, No Iterations 0
DICPCG:  Solving for p, Initial residual = 1.09651e-06, Final residual = 9.12221e-07, No Iterations 1
time step continuity errors : sum local = 1.32353e-10, global = 4.39178e-21, cumulative = -8.02128e-19
DICPCG:  Solving for p, Initial residual = 1.0654e-06, Final residual = 8.86124e-07, No Iterations 1
time step continuity errors : sum local = 1.2864e-10, global = 6.93036e-20, cumulative = -7.32825e-19
ExecutionTime = 1.8 s  ClockTime = 2 s

Time = 0.555625

Courant Number mean: 0.22584 max: 0.98166
smoothSolver:  Solving for Ux, Initial residual = 2.60858e-06, Final residual = 2.60858e-06, No Iterations 0
smoothSolver:  Solving for Uy, Initial residual = 6.9646e-06, Final residual = 6.9646e-06, No Iterations 0
DICPCG:  Solving for p, Initial residual = 1.03188e-06, Final residual = 8.63537e-07, No Iterations 1
time step continuity errors : sum local = 1.25432e-10, global = 6.6731e-20, cumulative = -6.66094e-19
DICPCG:  Solving for p, Initial residual = 1.00765e-06, Final residual = 8.48487e-07, No Iterations 1
time step continuity errors : sum local = 1.23313e-10, global = -5.97136e-20, cumulative = -7.25807e-19
ExecutionTime = 1.82 s  ClockTime = 3 s

Time = 0.55625

Courant Number mean: 0.22584 max: 0.98166
smoothSolver:  Solving for Ux, Initial residual = 2.60652e-06, Final residual = 2.60652e-06, No Iterations 0
smoothSolver:  Solving for Uy, Initial residual = 6.95919e-06, Final residual = 6.95919e-06, No Iterations 0
DICPCG:  Solving for p, Initial residual = 9.93129e-07, Final residual = 9.93129e-07, No Iterations 0
time step continuity errors : sum local = 1.44214e-10, global = -6.01698e-20, cumulative = -7.85977e-19
DICPCG:  Solving for p, Initial residual = 1.09466e-06, Final residual = 8.56861e-07, No Iterations 1
time step continuity errors : sum local = 1.24582e-10, global = 9.39644e-21, cumulative = -7.76581e-19
ExecutionTime = 1.83 s  ClockTime = 3 s

Time = 0.556875

Courant Number mean: 0.22584 max: 0.98166
smoothSolver:  Solving for Ux, Initial residual = 2.60455e-06, Final residual = 2.60455e-06, No Iterations 0
smoothSolver:  Solving for Uy, Initial residual = 6.9537e-06, Final residual = 6.9537e-06, No Iterations 0
DICPCG:  Solving for p, Initial residual = 1.09227e-06, Final residual = 9.11911e-07, No Iterations 1
time step continuity errors : sum local = 1.32584e-10, global = -6.41316e-20, cumulative = -8.40712e-19
DICPCG:  Solving for p, Initial residual = 1.0839e-06, Final residual = 9.77039e-07, No Iterations 1
time step continuity errors : sum local = 1.4203e-10, global = 6.81217e-20, cumulative = -7.72591e-19
ExecutionTime = 1.84 s  ClockTime = 3 s

Time = 0.5575

Courant Number mean: 0.22584 max: 0.98166
smoothSolver:  Solving for Ux, Initial residual = 2.60215e-06, Final residual = 2.60215e-06, No Iterations 0
smoothSolver:  Solving for Uy, Initial residual = 6.94741e-06, Final residual = 6.94741e-06, No Iterations 0
DICPCG:  Solving for p, Initial residual = 1.19591e-06, Final residual = 9.84042e-07, No Iterations 1
time step continuity errors : sum local = 1.43077e-10, global = -3.29009e-20, cumulative = -8.05492e-19
DICPCG:  Solving for p, Initial residual = 1.19931e-06, Final residual = 9.16811e-07, No Iterations 30
time step continuity errors : sum local = 1.38592e-10, global = 1.47819e-20, cumulative = -7.9071e-19
ExecutionTime = 1.86 s  ClockTime = 3 s

Time = 0.558125

Courant Number mean: 0.22584 max: 0.98166
smoothSolver:  Solving for Ux, Initial residual = 2.66688e-06, Final residual = 2.66688e-06, No Iterations 0
smoothSolver:  Solving for Uy, Initial residual = 6.75493e-06, Final residual = 6.75493e-06, No Iterations 0
DICPCG:  Solving for p, Initial residual = 1.79166e-06, Final residual = 9.76999e-07, No Iterations 43
time step continuity errors : sum local = 1.46071e-10, global = -2.80568e-20, cumulative = -8.18767e-19
DICPCG:  Solving for p, Initial residual = 1.65259e-06, Final residual = 9.67104e-07, No Iterations 17
time step continuity errors : sum local = 1.43046e-10, global = -4.94036e-20, cumulative = -8.6817e-19
ExecutionTime = 1.9 s  ClockTime = 3 s

Time = 0.55875

Courant Number mean: 0.22584 max: 0.98166
smoothSolver:  Solving for Ux, Initial residual = 2.58714e-06, Final residual = 2.58714e-06, No Iterations 0
smoothSolver:  Solving for Uy, Initial residual = 6.96324e-06, Final residual = 6.96324e-06, No Iterations 0
DICPCG:  Solving for p, Initial residual = 1.67801e-06, Final residual = 9.46247e-07, No Iterations 9
time step continuity errors : sum local = 1.39676e-10, global = 6.12354e-20, cumulative = -8.06935e-19
DICPCG:  Solving for p, Initial residual = 1.72484e-06, Final residual = 8.12109e-07, No Iterations 5
time step continuity errors : sum local = 1.19892e-10, global = 3.06362e-20, cumulative = -7.76299e-19
ExecutionTime = 1.92 s  ClockTime = 3 s

Time = 0.559375

Courant Number mean: 0.22584 max: 0.98166
smoothSolver:  Solving for Ux, Initial residual = 2.58942e-06, Final residual = 2.58942e-06, No Iterations 0
smoothSolver:  Solving for Uy, Initial residual = 6.93613e-06, Final residual = 6.93613e-06, No Iterations 0
DICPCG:  Solving for p, Initial residual = 1.48506e-06, Final residual = 8.1829e-07, No Iterations 3
time step continuity errors : sum local = 1.21093e-10, global = -2.03097e-19, cumulative = -9.79395e-19
DICPCG:  Solving for p, Initial residual = 1.46545e-06, Final residual = 8.57964e-07, No Iterations 2
time step continuity errors : sum local = 1.26794e-10, global = 5.91802e-20, cumulative = -9.20215e-19
ExecutionTime = 1.93 s  ClockTime = 3 s

Time = 0.56

Courant Number mean: 0.22584 max: 0.98166
smoothSolver:  Solving for Ux, Initial residual = 2.58643e-06, Final residual = 2.58643e-06, No Iterations 0
smoothSolver:  Solving for Uy, Initial residual = 6.92495e-06, Final residual = 6.92495e-06, No Iterations 0
DICPCG:  Solving for p, Initial residual = 1.61503e-06, Final residual = 9.54554e-07, No Iterations 1
time step continuity errors : sum local = 1.40393e-10, global = -5.0127e-20, cumulative = -9.70342e-19
DICPCG:  Solving for p, Initial residual = 1.34907e-06, Final residual = 7.55323e-07, No Iterations 1
time step continuity errors : sum local = 1.11632e-10, global = 5.73618e-20, cumulative = -9.1298e-19
ExecutionTime = 1.94 s  ClockTime = 3 s

Time = 0.560625

Courant Number mean: 0.22584 max: 0.98166
smoothSolver:  Solving for Ux, Initial residual = 2.584e-06, Final residual = 2.584e-06, No Iterations 0
smoothSolver:  Solving for Uy, Initial residual = 6.91708e-06, Final residual = 6.91708e-06, No Iterations 0
DICPCG:  Solving for p, Initial residual = 9.40927e-07, Final residual = 9.40927e-07, No Iterations 0
time step continuity errors : sum local = 1.3839e-10, global = -1.17967e-19, cumulative = -1.03095e-18
DICPCG:  Solving for p, Initial residual = 1.14202e-06, Final residual = 8.78474e-07, No Iterations 1
time step continuity errors : sum local = 1.29401e-10, global = 2.81162e-19, cumulative = -7.49785e-19
ExecutionTime = 1.95 s  ClockTime = 3 s

Time = 0.56125

Courant Number mean: 0.22584 max: 0.98166
smoothSolver:  Solving for Ux, Initial residual = 2.58211e-06, Final residual = 2.58211e-06, No Iterations 0
smoothSolver:  Solving for Uy, Initial residual = 6.91109e-06, Final residual = 6.91109e-06, No Iterations 0
DICPCG:  Solving for p, Initial residual = 1.06652e-06, Final residual = 8.16938e-07, No Iterations 1
time step continuity errors : sum local = 1.20496e-10, global = -9.13151e-20, cumulative = -8.411e-19
DICPCG:  Solving for p, Initial residual = 9.23442e-07, Final residual = 9.23442e-07, No Iterations 0
time step continuity errors : sum local = 1.35862e-10, global = 1.3874e-19, cumulative = -7.0236e-19
ExecutionTime = 1.96 s  ClockTime = 3 s

Time = 0.561875

Courant Number mean: 0.22584 max: 0.98166
smoothSolver:  Solving for Ux, Initial residual = 2.57995e-06, Final residual = 2.57995e-06, No Iterations 0
smoothSolver:  Solving for Uy, Initial residual = 6.90417e-06, Final residual = 6.90417e-06, No Iterations 0
DICPCG:  Solving for p, Initial residual = 1.03248e-06, Final residual = 9.17925e-07, No Iterations 1
time step continuity errors : sum local = 1.35007e-10, global = 1.31156e-19, cumulative = -5.71204e-19
DICPCG:  Solving for p, Initial residual = 1.09899e-06, Final residual = 9.42928e-07, No Iterations 1
time step continuity errors : sum local = 1.38562e-10, global = 4.72554e-20, cumulative = -5.23948e-19
ExecutionTime = 1.98 s  ClockTime = 3 s

Time = 0.5625

Courant Number mean: 0.22584 max: 0.98166
smoothSolver:  Solving for Ux, Initial residual = 2.57789e-06, Final residual = 2.57789e-06, No Iterations 0
smoothSolver:  Solving for Uy, Initial residual = 6.89721e-06, Final residual = 6.89721e-06, No Iterations 0
DICPCG:  Solving for p, Initial residual = 1.08784e-06, Final residual = 9.0087e-07, No Iterations 35
time step continuity errors : sum local = 1.36345e-10, global = 8.64967e-20, cumulative = -4.37452e-19
DICPCG:  Solving for p, Initial residual = 1.69732e-06, Final residual = 8.67657e-07, No Iterations 42
time step continuity errors : sum local = 1.28285e-10, global = -8.22857e-20, cumulative = -5.19737e-19
ExecutionTime = 2.02 s  ClockTime = 3 s

Time = 0.563125

Courant Number mean: 0.22584 max: 0.98166
smoothSolver:  Solving for Ux, Initial residual = 2.53891e-06, Final residual = 2.53891e-06, No Iterations 0
smoothSolver:  Solving for Uy, Initial residual = 7.00342e-06, Final residual = 7.00342e-06, No Iterations 0
DICPCG:  Solving for p, Initial residual = 1.50035e-06, Final residual = 9.92403e-07, No Iterations 11
time step continuity errors : sum local = 1.44487e-10, global = -2.45e-20, cumulative = -5.44237e-19
DICPCG:  Solving for p, Initial residual = 1.66322e-06, Final residual = 9.88597e-07, No Iterations 7
time step continuity errors : sum local = 1.43128e-10, global = 1.33744e-20, cumulative = -5.30863e-19
ExecutionTime = 2.04 s  ClockTime = 3 s

Time = 0.56375

Courant Number mean: 0.22584 max: 0.98166
smoothSolver:  Solving for Ux, Initial residual = 2.55814e-06, Final residual = 2.55814e-06, No Iterations 0
smoothSolver:  Solving for Uy, Initial residual = 6.94099e-06, Final residual = 6.94099e-06, No Iterations 0
DICPCG:  Solving for p, Initial residual = 1.70049e-06, Final residual = 9.86535e-07, No Iterations 4
time step continuity errors : sum local = 1.42314e-10, global = -3.92405e-20, cumulative = -5.70104e-19
DICPCG:  Solving for p, Initial residual = 1.80911e-06, Final residual = 9.96489e-07, No Iterations 3
time step continuity errors : sum local = 1.434e-10, global = 8.78829e-20, cumulative = -4.82221e-19
ExecutionTime = 2.05 s  ClockTime = 3 s

Time = 0.564375

Courant Number mean: 0.22584 max: 0.98166
smoothSolver:  Solving for Ux, Initial residual = 2.56179e-06, Final residual = 2.56179e-06, No Iterations 0
smoothSolver:  Solving for Uy, Initial residual = 6.9116e-06, Final residual = 6.9116e-06, No Iterations 0
DICPCG:  Solving for p, Initial residual = 1.79261e-06, Final residual = 8.83854e-07, No Iterations 2
time step continuity errors : sum local = 1.27358e-10, global = -3.0954e-20, cumulative = -5.13175e-19
DICPCG:  Solving for p, Initial residual = 1.64351e-06, Final residual = 9.9493e-07, No Iterations 20
time step continuity errors : sum local = 1.444e-10, global = 7.66616e-20, cumulative = -4.36513e-19
ExecutionTime = 2.07 s  ClockTime = 3 s

Time = 0.565

Courant Number mean: 0.22584 max: 0.98166
smoothSolver:  Solving for Ux, Initial residual = 2.68848e-06, Final residual = 2.68848e-06, No Iterations 0
smoothSolver:  Solving for Uy, Initial residual = 6.48512e-06, Final residual = 6.48512e-06, No Iterations 0
DICPCG:  Solving for p, Initial residual = 1.86958e-06, Final residual = 8.83438e-07, No Iterations 28
time step continuity errors : sum local = 1.29613e-10, global = -3.51968e-20, cumulative = -4.7171e-19
DICPCG:  Solving for p, Initial residual = 1.61171e-06, Final residual = 8.79993e-07, No Iterations 14
time step continuity errors : sum local = 1.29554e-10, global = -1.73513e-20, cumulative = -4.89061e-19
ExecutionTime = 2.1 s  ClockTime = 3 s

Time = 0.565625

Courant Number mean: 0.225841 max: 0.98166
smoothSolver:  Solving for Ux, Initial residual = 2.56729e-06, Final residual = 2.56729e-06, No Iterations 0
smoothSolver:  Solving for Uy, Initial residual = 6.86161e-06, Final residual = 6.86161e-06, No Iterations 0
DICPCG:  Solving for p, Initial residual = 1.61567e-06, Final residual = 9.87929e-07, No Iterations 29
time step continuity errors : sum local = 1.43711e-10, global = 1.2017e-21, cumulative = -4.8786e-19
DICPCG:  Solving for p, Initial residual = 1.70127e-06, Final residual = 9.20883e-07, No Iterations 13
time step continuity errors : sum local = 1.33711e-10, global = -1.10778e-20, cumulative = -4.98937e-19
ExecutionTime = 2.13 s  ClockTime = 3 s

Time = 0.56625

Courant Number mean: 0.225841 max: 0.98166
smoothSolver:  Solving for Ux, Initial residual = 2.54064e-06, Final residual = 2.54064e-06, No Iterations 0
smoothSolver:  Solving for Uy, Initial residual = 6.92359e-06, Final residual = 6.92359e-06, No Iterations 0
DICPCG:  Solving for p, Initial residual = 1.7112e-06, Final residual = 7.04937e-07, No Iterations 7
time step continuity errors : sum local = 1.0299e-10, global = 4.95075e-20, cumulative = -4.4943e-19
DICPCG:  Solving for p, Initial residual = 1.39043e-06, Final residual = 6.60629e-07, No Iterations 4
time step continuity errors : sum local = 9.62962e-11, global = -1.45951e-19, cumulative = -5.95381e-19
ExecutionTime = 2.14 s  ClockTime = 3 s

Time = 0.566875

Courant Number mean: 0.225841 max: 0.98166
smoothSolver:  Solving for Ux, Initial residual = 2.54197e-06, Final residual = 2.54197e-06, No Iterations 0
smoothSolver:  Solving for Uy, Initial residual = 6.90005e-06, Final residual = 6.90005e-06, No Iterations 0
DICPCG:  Solving for p, Initial residual = 1.31346e-06, Final residual = 9.6235e-07, No Iterations 3
time step continuity errors : sum local = 1.4007e-10, global = 5.36866e-20, cumulative = -5.41695e-19
DICPCG:  Solving for p, Initial residual = 1.64706e-06, Final residual = 9.363e-07, No Iterations 2
time step continuity errors : sum local = 1.3578e-10, global = 1.9008e-19, cumulative = -3.51615e-19
ExecutionTime = 2.16 s  ClockTime = 3 s

Time = 0.5675

Courant Number mean: 0.225841 max: 0.98166
smoothSolver:  Solving for Ux, Initial residual = 2.54413e-06, Final residual = 2.54413e-06, No Iterations 0
smoothSolver:  Solving for Uy, Initial residual = 6.8878e-06, Final residual = 6.8878e-06, No Iterations 0
DICPCG:  Solving for p, Initial residual = 1.85158e-06, Final residual = 9.69368e-07, No Iterations 25
time step continuity errors : sum local = 1.41198e-10, global = 3.56785e-20, cumulative = -3.15936e-19
DICPCG:  Solving for p, Initial residual = 1.77506e-06, Final residual = 8.56432e-07, No Iterations 27
time step continuity errors : sum local = 1.26281e-10, global = -2.95235e-21, cumulative = -3.18888e-19
ExecutionTime = 2.19 s  ClockTime = 3 s

Time = 0.568125

Courant Number mean: 0.225841 max: 0.98166
smoothSolver:  Solving for Ux, Initial residual = 2.56198e-06, Final residual = 2.56198e-06, No Iterations 0
[...]
DICPCG:  Solving for p, Initial residual = 9.0075e-07, Final residual = 9.0075e-07, No Iterations 0
time step continuity errors : sum local = 1.37068e-10, global = -3.79882e-20, cumulative = 4.32247e-18
ExecutionTime = 48.51 s  ClockTime = 53 s

Time = 2.98375

Courant Number mean: 0.225905 max: 0.981664
smoothSolver:  Solving for Ux, Initial residual = 5.09789e-08, Final residual = 5.09789e-08, No Iterations 0
smoothSolver:  Solving for Uy, Initial residual = 1.52243e-07, Final residual = 1.52243e-07, No Iterations 0
DICPCG:  Solving for p, Initial residual = 1.14894e-06, Final residual = 6.47231e-08, No Iterations 1
time step continuity errors : sum local = 1.63046e-11, global = 4.04055e-20, cumulative = 4.36287e-18
DICPCG:  Solving for p, Initial residual = 4.90618e-07, Final residual = 4.90618e-07, No Iterations 0
time step continuity errors : sum local = 7.78245e-11, global = -1.08402e-19, cumulative = 4.25447e-18
ExecutionTime = 48.52 s  ClockTime = 53 s

Time = 2.98437

Courant Number mean: 0.225905 max: 0.981664
smoothSolver:  Solving for Ux, Initial residual = 5.0953e-08, Final residual = 5.0953e-08, No Iterations 0
smoothSolver:  Solving for Uy, Initial residual = 1.52338e-07, Final residual = 1.52338e-07, No Iterations 0
DICPCG:  Solving for p, Initial residual = 8.25061e-07, Final residual = 8.25061e-07, No Iterations 0
time step continuity errors : sum local = 1.26134e-10, global = -3.43933e-20, cumulative = 4.22008e-18
DICPCG:  Solving for p, Initial residual = 1.04656e-06, Final residual = 6.40329e-08, No Iterations 1
time step continuity errors : sum local = 1.62048e-11, global = 6.17283e-20, cumulative = 4.2818e-18
ExecutionTime = 48.53 s  ClockTime = 53 s

Time = 2.985

Courant Number mean: 0.225905 max: 0.981664
smoothSolver:  Solving for Ux, Initial residual = 5.09517e-08, Final residual = 5.09517e-08, No Iterations 0
smoothSolver:  Solving for Uy, Initial residual = 1.52595e-07, Final residual = 1.52595e-07, No Iterations 0
DICPCG:  Solving for p, Initial residual = 4.59376e-07, Final residual = 4.59376e-07, No Iterations 0
time step continuity errors : sum local = 7.33115e-11, global = 5.59729e-20, cumulative = 4.33778e-18
DICPCG:  Solving for p, Initial residual = 7.49577e-07, Final residual = 7.49577e-07, No Iterations 0
time step continuity errors : sum local = 1.15231e-10, global = 2.65329e-20, cumulative = 4.36431e-18
ExecutionTime = 48.54 s  ClockTime = 53 s

Time = 2.98562

Courant Number mean: 0.225905 max: 0.981664
smoothSolver:  Solving for Ux, Initial residual = 5.08091e-08, Final residual = 5.08091e-08, No Iterations 0
smoothSolver:  Solving for Uy, Initial residual = 1.51669e-07, Final residual = 1.51669e-07, No Iterations 0
DICPCG:  Solving for p, Initial residual = 9.54752e-07, Final residual = 9.54752e-07, No Iterations 0
time step continuity errors : sum local = 1.44868e-10, global = -1.09968e-19, cumulative = 4.25434e-18
DICPCG:  Solving for p, Initial residual = 1.09157e-06, Final residual = 6.4248e-08, No Iterations 1
time step continuity errors : sum local = 1.62357e-11, global = 1.5438e-19, cumulative = 4.40872e-18
ExecutionTime = 48.55 s  ClockTime = 53 s

Time = 2.98625

Courant Number mean: 0.225905 max: 0.981664
smoothSolver:  Solving for Ux, Initial residual = 5.09043e-08, Final residual = 5.09043e-08, No Iterations 0
smoothSolver:  Solving for Uy, Initial residual = 1.52707e-07, Final residual = 1.52707e-07, No Iterations 0
DICPCG:  Solving for p, Initial residual = 5.4371e-07, Final residual = 5.4371e-07, No Iterations 0
time step continuity errors : sum local = 8.54933e-11, global = 1.17076e-19, cumulative = 4.5258e-18
DICPCG:  Solving for p, Initial residual = 8.91267e-07, Final residual = 8.91267e-07, No Iterations 0
time step continuity errors : sum local = 1.35697e-10, global = 7.02036e-20, cumulative = 4.596e-18
ExecutionTime = 48.56 s  ClockTime = 53 s

Time = 2.98687

Courant Number mean: 0.225905 max: 0.981664
smoothSolver:  Solving for Ux, Initial residual = 5.0723e-08, Final residual = 5.0723e-08, No Iterations 0
smoothSolver:  Solving for Uy, Initial residual = 1.51482e-07, Final residual = 1.51482e-07, No Iterations 0
DICPCG:  Solving for p, Initial residual = 1.13681e-06, Final residual = 6.44557e-08, No Iterations 1
time step continuity errors : sum local = 1.62656e-11, global = -8.1128e-20, cumulative = 4.51487e-18
DICPCG:  Solving for p, Initial residual = 4.85853e-07, Final residual = 4.85853e-07, No Iterations 0
time step continuity errors : sum local = 7.71359e-11, global = -1.50075e-19, cumulative = 4.3648e-18
ExecutionTime = 48.57 s  ClockTime = 53 s

Time = 2.9875

Courant Number mean: 0.225905 max: 0.981664
smoothSolver:  Solving for Ux, Initial residual = 5.06978e-08, Final residual = 5.06978e-08, No Iterations 0
smoothSolver:  Solving for Uy, Initial residual = 1.51576e-07, Final residual = 1.51576e-07, No Iterations 0
DICPCG:  Solving for p, Initial residual = 8.1668e-07, Final residual = 8.1668e-07, No Iterations 0
time step continuity errors : sum local = 1.24923e-10, global = -1.26255e-19, cumulative = 4.23854e-18
DICPCG:  Solving for p, Initial residual = 1.03577e-06, Final residual = 6.37951e-08, No Iterations 1
time step continuity errors : sum local = 1.61701e-11, global = -1.5033e-19, cumulative = 4.08821e-18
ExecutionTime = 48.58 s  ClockTime = 53 s

Time = 2.98812

Courant Number mean: 0.225905 max: 0.981664
smoothSolver:  Solving for Ux, Initial residual = 5.06951e-08, Final residual = 5.06951e-08, No Iterations 0
smoothSolver:  Solving for Uy, Initial residual = 1.51829e-07, Final residual = 1.51829e-07, No Iterations 0
DICPCG:  Solving for p, Initial residual = 4.54482e-07, Final residual = 4.54482e-07, No Iterations 0
time step continuity errors : sum local = 7.26042e-11, global = 2.88396e-20, cumulative = 4.11705e-18
DICPCG:  Solving for p, Initial residual = 7.4163e-07, Final residual = 7.4163e-07, No Iterations 0
time step continuity errors : sum local = 1.14082e-10, global = -1.33077e-20, cumulative = 4.10374e-18
ExecutionTime = 48.59 s  ClockTime = 53 s

Time = 2.98875

Courant Number mean: 0.225905 max: 0.981664
smoothSolver:  Solving for Ux, Initial residual = 5.05547e-08, Final residual = 5.05547e-08, No Iterations 0
smoothSolver:  Solving for Uy, Initial residual = 1.50912e-07, Final residual = 1.50912e-07, No Iterations 0
DICPCG:  Solving for p, Initial residual = 9.44615e-07, Final residual = 9.44615e-07, No Iterations 0
time step continuity errors : sum local = 1.43403e-10, global = -9.4866e-20, cumulative = 4.00888e-18
DICPCG:  Solving for p, Initial residual = 1.07997e-06, Final residual = 6.397e-08, No Iterations 1
time step continuity errors : sum local = 1.61952e-11, global = 7.56083e-20, cumulative = 4.08449e-18
ExecutionTime = 48.61 s  ClockTime = 53 s

Time = 2.98937

Courant Number mean: 0.225905 max: 0.981664
smoothSolver:  Solving for Ux, Initial residual = 5.06475e-08, Final residual = 5.06475e-08, No Iterations 0
smoothSolver:  Solving for Uy, Initial residual = 1.51926e-07, Final residual = 1.51926e-07, No Iterations 0
DICPCG:  Solving for p, Initial residual = 5.38379e-07, Final residual = 5.38379e-07, No Iterations 0
time step continuity errors : sum local = 8.47229e-11, global = 1.26095e-19, cumulative = 4.21058e-18
DICPCG:  Solving for p, Initial residual = 8.82139e-07, Final residual = 8.82139e-07, No Iterations 0
time step continuity errors : sum local = 1.34379e-10, global = -4.80833e-20, cumulative = 4.1625e-18
ExecutionTime = 48.62 s  ClockTime = 54 s

Time = 2.99

Courant Number mean: 0.225905 max: 0.981664
smoothSolver:  Solving for Ux, Initial residual = 5.04694e-08, Final residual = 5.04694e-08, No Iterations 0
smoothSolver:  Solving for Uy, Initial residual = 1.50722e-07, Final residual = 1.50722e-07, No Iterations 0
DICPCG:  Solving for p, Initial residual = 1.12497e-06, Final residual = 6.41943e-08, No Iterations 1
time step continuity errors : sum local = 1.62275e-11, global = 2.4181e-19, cumulative = 4.40431e-18
DICPCG:  Solving for p, Initial residual = 4.80615e-07, Final residual = 4.80615e-07, No Iterations 0
time step continuity errors : sum local = 7.63789e-11, global = -1.9386e-19, cumulative = 4.21045e-18
ExecutionTime = 48.63 s  ClockTime = 54 s

Time = 2.99062

Courant Number mean: 0.225905 max: 0.981664
smoothSolver:  Solving for Ux, Initial residual = 5.04427e-08, Final residual = 5.04427e-08, No Iterations 0
smoothSolver:  Solving for Uy, Initial residual = 1.50811e-07, Final residual = 1.50811e-07, No Iterations 0
DICPCG:  Solving for p, Initial residual = 8.07947e-07, Final residual = 8.07947e-07, No Iterations 0
time step continuity errors : sum local = 1.23662e-10, global = 1.21021e-19, cumulative = 4.33147e-18
DICPCG:  Solving for p, Initial residual = 1.02472e-06, Final residual = 6.35101e-08, No Iterations 1
time step continuity errors : sum local = 1.61286e-11, global = 1.47922e-20, cumulative = 4.34626e-18
ExecutionTime = 48.64 s  ClockTime = 54 s

Time = 2.99125

Courant Number mean: 0.225905 max: 0.981664
smoothSolver:  Solving for Ux, Initial residual = 5.04399e-08, Final residual = 5.04399e-08, No Iterations 0
smoothSolver:  Solving for Uy, Initial residual = 1.51059e-07, Final residual = 1.51059e-07, No Iterations 0
DICPCG:  Solving for p, Initial residual = 4.50121e-07, Final residual = 4.50121e-07, No Iterations 0
time step continuity errors : sum local = 7.1974e-11, global = 4.98394e-20, cumulative = 4.3961e-18
DICPCG:  Solving for p, Initial residual = 7.34122e-07, Final residual = 7.34122e-07, No Iterations 0
time step continuity errors : sum local = 1.12998e-10, global = 1.03635e-19, cumulative = 4.49974e-18
ExecutionTime = 48.65 s  ClockTime = 54 s

Time = 2.99187

Courant Number mean: 0.225905 max: 0.981664
smoothSolver:  Solving for Ux, Initial residual = 5.03016e-08, Final residual = 5.03016e-08, No Iterations 0
smoothSolver:  Solving for Uy, Initial residual = 1.50155e-07, Final residual = 1.50155e-07, No Iterations 0
DICPCG:  Solving for p, Initial residual = 9.34858e-07, Final residual = 9.34858e-07, No Iterations 0
time step continuity errors : sum local = 1.41994e-10, global = -1.25955e-19, cumulative = 4.37378e-18
DICPCG:  Solving for p, Initial residual = 1.06868e-06, Final residual = 6.36991e-08, No Iterations 1
time step continuity errors : sum local = 1.61558e-11, global = -4.02262e-21, cumulative = 4.36976e-18
ExecutionTime = 48.66 s  ClockTime = 54 s

Time = 2.9925

Courant Number mean: 0.225905 max: 0.981664
smoothSolver:  Solving for Ux, Initial residual = 5.03916e-08, Final residual = 5.03916e-08, No Iterations 0
smoothSolver:  Solving for Uy, Initial residual = 1.51163e-07, Final residual = 1.51163e-07, No Iterations 0
DICPCG:  Solving for p, Initial residual = 5.32597e-07, Final residual = 5.32597e-07, No Iterations 0
time step continuity errors : sum local = 8.38874e-11, global = -6.04107e-20, cumulative = 4.30935e-18
DICPCG:  Solving for p, Initial residual = 8.72706e-07, Final residual = 8.72706e-07, No Iterations 0
time step continuity errors : sum local = 1.33016e-10, global = 7.37104e-20, cumulative = 4.38306e-18
ExecutionTime = 48.67 s  ClockTime = 54 s

Time = 2.99312

Courant Number mean: 0.225905 max: 0.981664
smoothSolver:  Solving for Ux, Initial residual = 5.02161e-08, Final residual = 5.02161e-08, No Iterations 0
smoothSolver:  Solving for Uy, Initial residual = 1.49968e-07, Final residual = 1.49968e-07, No Iterations 0
DICPCG:  Solving for p, Initial residual = 1.11301e-06, Final residual = 6.38879e-08, No Iterations 1
time step continuity errors : sum local = 1.61829e-11, global = -1.12412e-20, cumulative = 4.37182e-18
DICPCG:  Solving for p, Initial residual = 4.75934e-07, Final residual = 4.75934e-07, No Iterations 0
time step continuity errors : sum local = 7.57024e-11, global = 1.28232e-20, cumulative = 4.38464e-18
ExecutionTime = 48.68 s  ClockTime = 54 s

Time = 2.99375

Courant Number mean: 0.225905 max: 0.981664
smoothSolver:  Solving for Ux, Initial residual = 5.01902e-08, Final residual = 5.01902e-08, No Iterations 0
smoothSolver:  Solving for Uy, Initial residual = 1.50057e-07, Final residual = 1.50057e-07, No Iterations 0
DICPCG:  Solving for p, Initial residual = 7.99635e-07, Final residual = 7.99635e-07, No Iterations 0
time step continuity errors : sum local = 1.22461e-10, global = -1.03866e-19, cumulative = 4.28077e-18
DICPCG:  Solving for p, Initial residual = 1.01398e-06, Final residual = 6.32341e-08, No Iterations 1
time step continuity errors : sum local = 1.60884e-11, global = -4.54071e-20, cumulative = 4.23537e-18
ExecutionTime = 48.69 s  ClockTime = 54 s

Time = 2.99437

Courant Number mean: 0.225905 max: 0.981664
smoothSolver:  Solving for Ux, Initial residual = 5.01861e-08, Final residual = 5.01861e-08, No Iterations 0
smoothSolver:  Solving for Uy, Initial residual = 1.50301e-07, Final residual = 1.50301e-07, No Iterations 0
DICPCG:  Solving for p, Initial residual = 4.45299e-07, Final residual = 4.45299e-07, No Iterations 0
time step continuity errors : sum local = 7.12771e-11, global = -3.55373e-21, cumulative = 4.23181e-18
DICPCG:  Solving for p, Initial residual = 7.26264e-07, Final residual = 7.26264e-07, No Iterations 0
time step continuity errors : sum local = 1.11862e-10, global = 1.92285e-20, cumulative = 4.25104e-18
ExecutionTime = 48.7 s  ClockTime = 54 s

Time = 2.995

Courant Number mean: 0.225905 max: 0.981664
smoothSolver:  Solving for Ux, Initial residual = 5.00499e-08, Final residual = 5.00499e-08, No Iterations 0
smoothSolver:  Solving for Uy, Initial residual = 1.49405e-07, Final residual = 1.49405e-07, No Iterations 0
DICPCG:  Solving for p, Initial residual = 9.24885e-07, Final residual = 9.24885e-07, No Iterations 0
time step continuity errors : sum local = 1.40553e-10, global = 1.27838e-20, cumulative = 4.26382e-18
DICPCG:  Solving for p, Initial residual = 1.05731e-06, Final residual = 6.33915e-08, No Iterations 1
time step continuity errors : sum local = 1.6111e-11, global = -2.6573e-20, cumulative = 4.23725e-18
ExecutionTime = 48.72 s  ClockTime = 54 s

Time = 2.99562

Courant Number mean: 0.225905 max: 0.981664
smoothSolver:  Solving for Ux, Initial residual = 5.01374e-08, Final residual = 5.01374e-08, No Iterations 0
smoothSolver:  Solving for Uy, Initial residual = 1.50392e-07, Final residual = 1.50392e-07, No Iterations 0
DICPCG:  Solving for p, Initial residual = 5.27285e-07, Final residual = 5.27285e-07, No Iterations 0
time step continuity errors : sum local = 8.31198e-11, global = -2.01153e-20, cumulative = 4.21714e-18
DICPCG:  Solving for p, Initial residual = 8.63625e-07, Final residual = 8.63625e-07, No Iterations 0
time step continuity errors : sum local = 1.31704e-10, global = 4.59012e-20, cumulative = 4.26304e-18
ExecutionTime = 48.73 s  ClockTime = 54 s

Time = 2.99625

Courant Number mean: 0.225905 max: 0.981664
smoothSolver:  Solving for Ux, Initial residual = 4.99651e-08, Final residual = 4.99651e-08, No Iterations 0
smoothSolver:  Solving for Uy, Initial residual = 1.49216e-07, Final residual = 1.49216e-07, No Iterations 0
DICPCG:  Solving for p, Initial residual = 1.10124e-06, Final residual = 6.3594e-08, No Iterations 1
time step continuity errors : sum local = 1.61402e-11, global = 6.81294e-20, cumulative = 4.33117e-18
DICPCG:  Solving for p, Initial residual = 4.7082e-07, Final residual = 4.7082e-07, No Iterations 0
time step continuity errors : sum local = 7.49634e-11, global = -1.29124e-19, cumulative = 4.20204e-18
ExecutionTime = 48.74 s  ClockTime = 54 s

Time = 2.99687

Courant Number mean: 0.225905 max: 0.981664
smoothSolver:  Solving for Ux, Initial residual = 4.99379e-08, Final residual = 4.99379e-08, No Iterations 0
smoothSolver:  Solving for Uy, Initial residual = 1.49299e-07, Final residual = 1.49299e-07, No Iterations 0
DICPCG:  Solving for p, Initial residual = 7.91094e-07, Final residual = 7.91094e-07, No Iterations 0
time step continuity errors : sum local = 1.21227e-10, global = -8.33647e-20, cumulative = 4.11868e-18
DICPCG:  Solving for p, Initial residual = 1.0032e-06, Final residual = 6.29324e-08, No Iterations 1
time step continuity errors : sum local = 1.60445e-11, global = 1.32964e-19, cumulative = 4.25164e-18
ExecutionTime = 48.75 s  ClockTime = 54 s

Time = 2.9975

Courant Number mean: 0.225905 max: 0.981664
smoothSolver:  Solving for Ux, Initial residual = 4.99335e-08, Final residual = 4.99335e-08, No Iterations 0
smoothSolver:  Solving for Uy, Initial residual = 1.49539e-07, Final residual = 1.49539e-07, No Iterations 0
DICPCG:  Solving for p, Initial residual = 4.4092e-07, Final residual = 4.4092e-07, No Iterations 0
time step continuity errors : sum local = 7.06442e-11, global = -6.33662e-20, cumulative = 4.18828e-18
DICPCG:  Solving for p, Initial residual = 7.18805e-07, Final residual = 7.18805e-07, No Iterations 0
time step continuity errors : sum local = 1.10784e-10, global = 1.44114e-20, cumulative = 4.20269e-18
ExecutionTime = 48.76 s  ClockTime = 54 s

Time = 2.99812

Courant Number mean: 0.225905 max: 0.981664
smoothSolver:  Solving for Ux, Initial residual = 4.97995e-08, Final residual = 4.97995e-08, No Iterations 0
smoothSolver:  Solving for Uy, Initial residual = 1.48656e-07, Final residual = 1.48656e-07, No Iterations 0
DICPCG:  Solving for p, Initial residual = 9.15198e-07, Final residual = 9.15198e-07, No Iterations 0
time step continuity errors : sum local = 1.39153e-10, global = -1.20981e-19, cumulative = 4.08171e-18
DICPCG:  Solving for p, Initial residual = 1.04613e-06, Final residual = 6.31032e-08, No Iterations 1
time step continuity errors : sum local = 1.6069e-11, global = -5.11355e-20, cumulative = 4.03057e-18
ExecutionTime = 48.77 s  ClockTime = 54 s

Time = 2.99875

Courant Number mean: 0.225905 max: 0.981664
smoothSolver:  Solving for Ux, Initial residual = 4.98844e-08, Final residual = 4.98844e-08, No Iterations 0
smoothSolver:  Solving for Uy, Initial residual = 1.49634e-07, Final residual = 1.49634e-07, No Iterations 0
DICPCG:  Solving for p, Initial residual = 5.21692e-07, Final residual = 5.21692e-07, No Iterations 0
time step continuity errors : sum local = 8.23116e-11, global = 1.24973e-20, cumulative = 4.04307e-18
DICPCG:  Solving for p, Initial residual = 8.54461e-07, Final residual = 8.54461e-07, No Iterations 0
time step continuity errors : sum local = 1.3038e-10, global = -3.9606e-20, cumulative = 4.00346e-18
ExecutionTime = 48.78 s  ClockTime = 54 s

Time = 2.99937

Courant Number mean: 0.225905 max: 0.981664
smoothSolver:  Solving for Ux, Initial residual = 4.97146e-08, Final residual = 4.97146e-08, No Iterations 0
smoothSolver:  Solving for Uy, Initial residual = 1.48469e-07, Final residual = 1.48469e-07, No Iterations 0
DICPCG:  Solving for p, Initial residual = 1.08956e-06, Final residual = 6.32896e-08, No Iterations 1
time step continuity errors : sum local = 1.60959e-11, global = 1.13618e-20, cumulative = 4.01482e-18
DICPCG:  Solving for p, Initial residual = 4.66103e-07, Final residual = 4.66103e-07, No Iterations 0
time step continuity errors : sum local = 7.42818e-11, global = -6.70887e-20, cumulative = 3.94774e-18
ExecutionTime = 48.79 s  ClockTime = 54 s

Time = 3

Courant Number mean: 0.225905 max: 0.981664
smoothSolver:  Solving for Ux, Initial residual = 4.96881e-08, Final residual = 4.96881e-08, No Iterations 0
smoothSolver:  Solving for Uy, Initial residual = 1.48553e-07, Final residual = 1.48553e-07, No Iterations 0
DICPCG:  Solving for p, Initial residual = 7.82852e-07, Final residual = 7.82852e-07, No Iterations 0
time step continuity errors : sum local = 1.20036e-10, global = -3.31696e-20, cumulative = 3.91457e-18
DICPCG:  Solving for p, Initial residual = 9.92563e-07, Final residual = 9.92563e-07, No Iterations 0
time step continuity errors : sum local = 1.50328e-10, global = 1.13202e-19, cumulative = 4.02777e-18
ExecutionTime = 48.86 s  ClockTime = 54 s

End

