/*---------------------------------------------------------------------------*\
  =========                 |
  \\      /  F ield         | OpenFOAM: The Open Source CFD Toolbox
   \\    /   O peration     | Website:  https://openfoam.org
    \\  /    A nd           | Version:  7
     \\/     M anipulation  |
\*---------------------------------------------------------------------------*/
Build  : 7
Exec   : icoFoam
Date   : Feb 08 2025
Time   : 01:36:15
Host   : "c207-034.frontera.tacc.utexas.edu"
PID    : 19725
I/O    : uncollated
Case   : /work2/10249/ctshep3141/frontera/coe347/COE-347-Open-Foam/of-project-1/cavity-Re-10/20x20
nProcs : 1
sigFpe : Enabling floating point exception trapping (FOAM_SIGFPE).
fileModificationChecking : Monitoring run-time modified files using timeStampMaster (fileModificationSkew 10)
allowSystemOperations : Allowing user-supplied system call operations

// * * * * * * * * * * * * * * * * * * * * * * * * * * * * * * * * * * * * * //
Create time

Create mesh for time = 0.5

Reading transportProperties

Reading field p

Reading field U

Reading/calculating face flux field phi


Starting time loop

Time = 0.505

Courant Number mean: 0.222158 max: 0.852134
smoothSolver:  Solving for Ux, Initial residual = 1.79647e-06, Final residual = 1.79647e-06, No Iterations 0
smoothSolver:  Solving for Uy, Initial residual = 3.95628e-06, Final residual = 3.95628e-06, No Iterations 0
DICPCG:  Solving for p, Initial residual = 1.36667e-05, Final residual = 7.8205e-07, No Iterations 3
time step continuity errors : sum local = 8.17824e-09, global = -1.14184e-18, cumulative = -1.14184e-18
DICPCG:  Solving for p, Initial residual = 6.6103e-06, Final residual = 7.01497e-07, No Iterations 2
time step continuity errors : sum local = 7.45416e-09, global = -1.21149e-18, cumulative = -2.35333e-18
ExecutionTime = 0.03 s  ClockTime = 1 s

Time = 0.51

Courant Number mean: 0.222158 max: 0.852134
smoothSolver:  Solving for Ux, Initial residual = 6.64935e-07, Final residual = 6.64935e-07, No Iterations 0
smoothSolver:  Solving for Uy, Initial residual = 1.59874e-06, Final residual = 1.59874e-06, No Iterations 0
DICPCG:  Solving for p, Initial residual = 5.40318e-06, Final residual = 7.76613e-07, No Iterations 1
time step continuity errors : sum local = 8.04283e-09, global = -3.8133e-20, cumulative = -2.39146e-18
DICPCG:  Solving for p, Initial residual = 2.6237e-06, Final residual = 8.12426e-07, No Iterations 2
time step continuity errors : sum local = 8.31789e-09, global = -2.04644e-19, cumulative = -2.59611e-18
ExecutionTime = 0.03 s  ClockTime = 1 s

Time = 0.515

Courant Number mean: 0.222158 max: 0.852134
smoothSolver:  Solving for Ux, Initial residual = 4.0648e-07, Final residual = 4.0648e-07, No Iterations 0
smoothSolver:  Solving for Uy, Initial residual = 1.05254e-06, Final residual = 1.05254e-06, No Iterations 0
DICPCG:  Solving for p, Initial residual = 2.3551e-06, Final residual = 7.05528e-07, No Iterations 1
time step continuity errors : sum local = 7.46055e-09, global = 9.51175e-19, cumulative = -1.64493e-18
DICPCG:  Solving for p, Initial residual = 1.85159e-06, Final residual = 5.62546e-07, No Iterations 2
time step continuity errors : sum local = 6.30178e-09, global = 4.55363e-19, cumulative = -1.18957e-18
ExecutionTime = 0.03 s  ClockTime = 1 s

Time = 0.52

Courant Number mean: 0.222158 max: 0.852134
smoothSolver:  Solving for Ux, Initial residual = 2.95981e-07, Final residual = 2.95981e-07, No Iterations 0
smoothSolver:  Solving for Uy, Initial residual = 7.36892e-07, Final residual = 7.36892e-07, No Iterations 0
DICPCG:  Solving for p, Initial residual = 1.44268e-06, Final residual = 8.15319e-07, No Iterations 1
time step continuity errors : sum local = 8.34131e-09, global = -1.4914e-19, cumulative = -1.33871e-18
DICPCG:  Solving for p, Initial residual = 1.48713e-06, Final residual = 5.77651e-07, No Iterations 1
time step continuity errors : sum local = 6.37689e-09, global = 1.62624e-18, cumulative = 2.87528e-19
ExecutionTime = 0.03 s  ClockTime = 1 s

Time = 0.525

Courant Number mean: 0.222158 max: 0.852134
smoothSolver:  Solving for Ux, Initial residual = 2.32179e-07, Final residual = 2.32179e-07, No Iterations 0
smoothSolver:  Solving for Uy, Initial residual = 5.93347e-07, Final residual = 5.93347e-07, No Iterations 0
DICPCG:  Solving for p, Initial residual = 1.04859e-06, Final residual = 5.07868e-07, No Iterations 1
time step continuity errors : sum local = 5.80086e-09, global = 1.0425e-18, cumulative = 1.33002e-18
DICPCG:  Solving for p, Initial residual = 8.86698e-07, Final residual = 8.86698e-07, No Iterations 0
time step continuity errors : sum local = 8.90621e-09, global = -6.98389e-19, cumulative = 6.31635e-19
ExecutionTime = 0.03 s  ClockTime = 1 s

Time = 0.53

Courant Number mean: 0.222158 max: 0.852134
smoothSolver:  Solving for Ux, Initial residual = 1.94893e-07, Final residual = 1.94893e-07, No Iterations 0
smoothSolver:  Solving for Uy, Initial residual = 5.03641e-07, Final residual = 5.03641e-07, No Iterations 0
DICPCG:  Solving for p, Initial residual = 7.70623e-07, Final residual = 7.70623e-07, No Iterations 0
time step continuity errors : sum local = 7.95472e-09, global = -3.56267e-19, cumulative = 2.75368e-19
DICPCG:  Solving for p, Initial residual = 1.03844e-06, Final residual = 3.77108e-07, No Iterations 1
time step continuity errors : sum local = 4.73777e-09, global = 2.05554e-19, cumulative = 4.80923e-19
ExecutionTime = 0.03 s  ClockTime = 1 s

Time = 0.535

Courant Number mean: 0.222158 max: 0.852134
smoothSolver:  Solving for Ux, Initial residual = 1.71659e-07, Final residual = 1.71659e-07, No Iterations 0
smoothSolver:  Solving for Uy, Initial residual = 4.36295e-07, Final residual = 4.36295e-07, No Iterations 0
DICPCG:  Solving for p, Initial residual = 7.0696e-07, Final residual = 7.0696e-07, No Iterations 0
time step continuity errors : sum local = 7.44212e-09, global = 1.13564e-18, cumulative = 1.61656e-18
DICPCG:  Solving for p, Initial residual = 6.44892e-07, Final residual = 6.44892e-07, No Iterations 0
time step continuity errors : sum local = 6.93334e-09, global = -1.12166e-19, cumulative = 1.50439e-18
ExecutionTime = 0.03 s  ClockTime = 1 s

Time = 0.54

Courant Number mean: 0.222158 max: 0.852134
smoothSolver:  Solving for Ux, Initial residual = 1.54561e-07, Final residual = 1.54561e-07, No Iterations 0
smoothSolver:  Solving for Uy, Initial residual = 3.84228e-07, Final residual = 3.84228e-07, No Iterations 0
DICPCG:  Solving for p, Initial residual = 7.95741e-07, Final residual = 7.95741e-07, No Iterations 0
time step continuity errors : sum local = 8.16988e-09, global = -1.60589e-18, cumulative = -1.01495e-19
DICPCG:  Solving for p, Initial residual = 7.46555e-07, Final residual = 7.46555e-07, No Iterations 0
time step continuity errors : sum local = 7.76669e-09, global = 4.80178e-19, cumulative = 3.78683e-19
ExecutionTime = 0.03 s  ClockTime = 1 s

Time = 0.545

Courant Number mean: 0.222158 max: 0.852134
smoothSolver:  Solving for Ux, Initial residual = 1.43565e-07, Final residual = 1.43565e-07, No Iterations 0
smoothSolver:  Solving for Uy, Initial residual = 3.464e-07, Final residual = 3.464e-07, No Iterations 0
DICPCG:  Solving for p, Initial residual = 8.41426e-07, Final residual = 8.41426e-07, No Iterations 0
time step continuity errors : sum local = 8.54437e-09, global = 1.14283e-18, cumulative = 1.52152e-18
DICPCG:  Solving for p, Initial residual = 8.14301e-07, Final residual = 8.14301e-07, No Iterations 0
time step continuity errors : sum local = 8.32202e-09, global = 6.76716e-19, cumulative = 2.19823e-18
ExecutionTime = 0.03 s  ClockTime = 1 s

Time = 0.55

Courant Number mean: 0.222159 max: 0.852134
smoothSolver:  Solving for Ux, Initial residual = 1.35519e-07, Final residual = 1.35519e-07, No Iterations 0
smoothSolver:  Solving for Uy, Initial residual = 3.17381e-07, Final residual = 3.17381e-07, No Iterations 0
DICPCG:  Solving for p, Initial residual = 8.87567e-07, Final residual = 8.87567e-07, No Iterations 0
time step continuity errors : sum local = 8.92259e-09, global = 1.65337e-18, cumulative = 3.8516e-18
DICPCG:  Solving for p, Initial residual = 8.81493e-07, Final residual = 8.81493e-07, No Iterations 0
time step continuity errors : sum local = 8.87281e-09, global = -8.73089e-19, cumulative = 2.97851e-18
ExecutionTime = 0.03 s  ClockTime = 1 s

Time = 0.555

Courant Number mean: 0.222159 max: 0.852134
smoothSolver:  Solving for Ux, Initial residual = 1.28721e-07, Final residual = 1.28721e-07, No Iterations 0
smoothSolver:  Solving for Uy, Initial residual = 2.94384e-07, Final residual = 2.94384e-07, No Iterations 0
DICPCG:  Solving for p, Initial residual = 9.45764e-07, Final residual = 9.45764e-07, No Iterations 0
time step continuity errors : sum local = 9.39965e-09, global = -1.00718e-18, cumulative = 1.97134e-18
DICPCG:  Solving for p, Initial residual = 9.56438e-07, Final residual = 9.56438e-07, No Iterations 0
time step continuity errors : sum local = 9.48714e-09, global = -3.43032e-19, cumulative = 1.62831e-18
ExecutionTime = 0.03 s  ClockTime = 1 s

Time = 0.56

Courant Number mean: 0.222159 max: 0.852134
smoothSolver:  Solving for Ux, Initial residual = 1.22498e-07, Final residual = 1.22498e-07, No Iterations 0
smoothSolver:  Solving for Uy, Initial residual = 2.76065e-07, Final residual = 2.76065e-07, No Iterations 0
DICPCG:  Solving for p, Initial residual = 1.01774e-06, Final residual = 6.69366e-07, No Iterations 1
time step continuity errors : sum local = 7.13698e-09, global = 1.13737e-19, cumulative = 1.74204e-18
DICPCG:  Solving for p, Initial residual = 9.01893e-07, Final residual = 9.01893e-07, No Iterations 0
time step continuity errors : sum local = 9.03829e-09, global = 1.56585e-19, cumulative = 1.89863e-18
ExecutionTime = 0.03 s  ClockTime = 1 s

Time = 0.565

Courant Number mean: 0.222159 max: 0.852134
smoothSolver:  Solving for Ux, Initial residual = 1.20216e-07, Final residual = 1.20216e-07, No Iterations 0
smoothSolver:  Solving for Uy, Initial residual = 2.60422e-07, Final residual = 2.60422e-07, No Iterations 0
DICPCG:  Solving for p, Initial residual = 1.19078e-06, Final residual = 3.33002e-07, No Iterations 1
time step continuity errors : sum local = 4.36927e-09, global = -1.09461e-18, cumulative = 8.0402e-19
DICPCG:  Solving for p, Initial residual = 4.74396e-07, Final residual = 4.74396e-07, No Iterations 0
time step continuity errors : sum local = 5.52568e-09, global = 1.39769e-18, cumulative = 2.20171e-18
ExecutionTime = 0.03 s  ClockTime = 1 s

Time = 0.57

Courant Number mean: 0.222159 max: 0.852134
smoothSolver:  Solving for Ux, Initial residual = 1.0707e-07, Final residual = 1.0707e-07, No Iterations 0
smoothSolver:  Solving for Uy, Initial residual = 2.30512e-07, Final residual = 2.30512e-07, No Iterations 0
DICPCG:  Solving for p, Initial residual = 6.91727e-07, Final residual = 6.91727e-07, No Iterations 0
time step continuity errors : sum local = 7.30362e-09, global = -1.6709e-19, cumulative = 2.03462e-18
DICPCG:  Solving for p, Initial residual = 7.99946e-07, Final residual = 7.99946e-07, No Iterations 0
time step continuity errors : sum local = 8.18892e-09, global = -1.19114e-19, cumulative = 1.9155e-18
ExecutionTime = 0.04 s  ClockTime = 1 s

Time = 0.575

Courant Number mean: 0.222159 max: 0.852134
smoothSolver:  Solving for Ux, Initial residual = 9.88901e-08, Final residual = 9.88901e-08, No Iterations 0
smoothSolver:  Solving for Uy, Initial residual = 2.14001e-07, Final residual = 2.14001e-07, No Iterations 0
DICPCG:  Solving for p, Initial residual = 9.02986e-07, Final residual = 9.02986e-07, No Iterations 0
time step continuity errors : sum local = 9.03167e-09, global = -1.72963e-19, cumulative = 1.74254e-18
DICPCG:  Solving for p, Initial residual = 9.66055e-07, Final residual = 9.66055e-07, No Iterations 0
time step continuity errors : sum local = 9.5474e-09, global = -1.6216e-18, cumulative = 1.20934e-19
ExecutionTime = 0.04 s  ClockTime = 1 s

Time = 0.58

Courant Number mean: 0.222159 max: 0.852134
smoothSolver:  Solving for Ux, Initial residual = 9.36249e-08, Final residual = 9.36249e-08, No Iterations 0
smoothSolver:  Solving for Uy, Initial residual = 2.02429e-07, Final residual = 2.02429e-07, No Iterations 0
DICPCG:  Solving for p, Initial residual = 1.02623e-06, Final residual = 4.31766e-07, No Iterations 1
time step continuity errors : sum local = 5.15873e-09, global = -3.76367e-19, cumulative = -2.55433e-19
DICPCG:  Solving for p, Initial residual = 6.72549e-07, Final residual = 6.72549e-07, No Iterations 0
time step continuity errors : sum local = 7.1323e-09, global = 4.53709e-19, cumulative = 1.98275e-19
ExecutionTime = 0.04 s  ClockTime = 1 s

Time = 0.585

Courant Number mean: 0.222159 max: 0.852134
smoothSolver:  Solving for Ux, Initial residual = 1.01755e-07, Final residual = 1.01755e-07, No Iterations 0
smoothSolver:  Solving for Uy, Initial residual = 2.1366e-07, Final residual = 2.1366e-07, No Iterations 0
DICPCG:  Solving for p, Initial residual = 9.81291e-07, Final residual = 9.81291e-07, No Iterations 0
time step continuity errors : sum local = 9.66078e-09, global = 3.20946e-19, cumulative = 5.19221e-19
DICPCG:  Solving for p, Initial residual = 1.12789e-06, Final residual = 2.48519e-07, No Iterations 1
time step continuity errors : sum local = 3.6541e-09, global = -5.73236e-20, cumulative = 4.61898e-19
ExecutionTime = 0.04 s  ClockTime = 1 s

Time = 0.59

Courant Number mean: 0.222159 max: 0.852134
smoothSolver:  Solving for Ux, Initial residual = 9.84765e-08, Final residual = 9.84765e-08, No Iterations 0
smoothSolver:  Solving for Uy, Initial residual = 2.08535e-07, Final residual = 2.08535e-07, No Iterations 0
DICPCG:  Solving for p, Initial residual = 5.4737e-07, Final residual = 5.4737e-07, No Iterations 0
time step continuity errors : sum local = 6.10392e-09, global = 7.89957e-20, cumulative = 5.40893e-19
DICPCG:  Solving for p, Initial residual = 7.26586e-07, Final residual = 7.26586e-07, No Iterations 0
time step continuity errors : sum local = 7.57299e-09, global = 7.99801e-19, cumulative = 1.34069e-18
ExecutionTime = 0.04 s  ClockTime = 1 s

Time = 0.595

Courant Number mean: 0.222159 max: 0.852134
smoothSolver:  Solving for Ux, Initial residual = 8.89476e-08, Final residual = 8.89476e-08, No Iterations 0
smoothSolver:  Solving for Uy, Initial residual = 1.88132e-07, Final residual = 1.88132e-07, No Iterations 0
DICPCG:  Solving for p, Initial residual = 8.90338e-07, Final residual = 8.90338e-07, No Iterations 0
time step continuity errors : sum local = 8.9153e-09, global = 1.21645e-18, cumulative = 2.55715e-18
DICPCG:  Solving for p, Initial residual = 9.80442e-07, Final residual = 9.80442e-07, No Iterations 0
time step continuity errors : sum local = 9.6539e-09, global = -1.36584e-18, cumulative = 1.19131e-18
ExecutionTime = 0.04 s  ClockTime = 1 s

Time = 0.6

Courant Number mean: 0.222159 max: 0.852134
smoothSolver:  Solving for Ux, Initial residual = 8.35811e-08, Final residual = 8.35811e-08, No Iterations 0
smoothSolver:  Solving for Uy, Initial residual = 1.77057e-07, Final residual = 1.77057e-07, No Iterations 0
DICPCG:  Solving for p, Initial residual = 1.06519e-06, Final residual = 3.6781e-07, No Iterations 1
time step continuity errors : sum local = 4.63648e-09, global = -7.37183e-19, cumulative = 4.54122e-19
DICPCG:  Solving for p, Initial residual = 6.69469e-07, Final residual = 6.69469e-07, No Iterations 0
time step continuity errors : sum local = 7.10872e-09, global = -1.19941e-19, cumulative = 3.34181e-19
ExecutionTime = 0.04 s  ClockTime = 1 s

Time = 0.605

Courant Number mean: 0.222159 max: 0.852134
smoothSolver:  Solving for Ux, Initial residual = 8.12528e-08, Final residual = 8.12528e-08, No Iterations 0
smoothSolver:  Solving for Uy, Initial residual = 1.75255e-07, Final residual = 1.75255e-07, No Iterations 0
DICPCG:  Solving for p, Initial residual = 1.00388e-06, Final residual = 2.54665e-07, No Iterations 1
time step continuity errors : sum local = 3.70767e-09, global = -5.23853e-19, cumulative = -1.89672e-19
DICPCG:  Solving for p, Initial residual = 3.83492e-07, Final residual = 3.83492e-07, No Iterations 0
time step continuity errors : sum local = 4.76334e-09, global = 8.47281e-19, cumulative = 6.57609e-19
ExecutionTime = 0.04 s  ClockTime = 1 s

Time = 0.61

Courant Number mean: 0.222159 max: 0.852134
smoothSolver:  Solving for Ux, Initial residual = 6.83023e-08, Final residual = 6.83023e-08, No Iterations 0
smoothSolver:  Solving for Uy, Initial residual = 1.51472e-07, Final residual = 1.51472e-07, No Iterations 0
DICPCG:  Solving for p, Initial residual = 5.73621e-07, Final residual = 5.73621e-07, No Iterations 0
time step continuity errors : sum local = 6.32107e-09, global = -3.03741e-19, cumulative = 3.53868e-19
DICPCG:  Solving for p, Initial residual = 6.6354e-07, Final residual = 6.6354e-07, No Iterations 0
time step continuity errors : sum local = 7.05731e-09, global = 3.87948e-20, cumulative = 3.92663e-19
ExecutionTime = 0.04 s  ClockTime = 1 s

Time = 0.615

Courant Number mean: 0.222159 max: 0.852134
smoothSolver:  Solving for Ux, Initial residual = 6.21033e-08, Final residual = 6.21033e-08, No Iterations 0
smoothSolver:  Solving for Uy, Initial residual = 1.39345e-07, Final residual = 1.39345e-07, No Iterations 0
DICPCG:  Solving for p, Initial residual = 7.46669e-07, Final residual = 7.46669e-07, No Iterations 0
time step continuity errors : sum local = 7.73782e-09, global = 1.87439e-19, cumulative = 5.80102e-19
DICPCG:  Solving for p, Initial residual = 7.93502e-07, Final residual = 7.93502e-07, No Iterations 0
time step continuity errors : sum local = 8.12093e-09, global = 3.66689e-19, cumulative = 9.46791e-19
ExecutionTime = 0.04 s  ClockTime = 1 s

Time = 0.62

Courant Number mean: 0.222159 max: 0.852134
smoothSolver:  Solving for Ux, Initial residual = 5.84825e-08, Final residual = 5.84825e-08, No Iterations 0
smoothSolver:  Solving for Uy, Initial residual = 1.31552e-07, Final residual = 1.31552e-07, No Iterations 0
DICPCG:  Solving for p, Initial residual = 8.36847e-07, Final residual = 8.36847e-07, No Iterations 0
time step continuity errors : sum local = 8.4754e-09, global = -9.76487e-19, cumulative = -2.96958e-20
DICPCG:  Solving for p, Initial residual = 8.65619e-07, Final residual = 8.65619e-07, No Iterations 0
time step continuity errors : sum local = 8.71057e-09, global = 1.84461e-20, cumulative = -1.12496e-20
ExecutionTime = 0.04 s  ClockTime = 1 s

Time = 0.625

Courant Number mean: 0.222159 max: 0.852134
smoothSolver:  Solving for Ux, Initial residual = 5.56291e-08, Final residual = 5.56291e-08, No Iterations 0
smoothSolver:  Solving for Uy, Initial residual = 1.25305e-07, Final residual = 1.25305e-07, No Iterations 0
DICPCG:  Solving for p, Initial residual = 8.9493e-07, Final residual = 8.9493e-07, No Iterations 0
time step continuity errors : sum local = 8.95015e-09, global = 1.67628e-18, cumulative = 1.66503e-18
DICPCG:  Solving for p, Initial residual = 9.16555e-07, Final residual = 9.16555e-07, No Iterations 0
time step continuity errors : sum local = 9.12685e-09, global = -8.48026e-19, cumulative = 8.17006e-19
ExecutionTime = 0.04 s  ClockTime = 1 s

Time = 0.63

Courant Number mean: 0.222159 max: 0.852134
smoothSolver:  Solving for Ux, Initial residual = 5.30986e-08, Final residual = 5.30986e-08, No Iterations 0
smoothSolver:  Solving for Uy, Initial residual = 1.19528e-07, Final residual = 1.19528e-07, No Iterations 0
DICPCG:  Solving for p, Initial residual = 9.3893e-07, Final residual = 9.3893e-07, No Iterations 0
time step continuity errors : sum local = 9.3097e-09, global = -4.46678e-20, cumulative = 7.72339e-19
DICPCG:  Solving for p, Initial residual = 9.56194e-07, Final residual = 9.56194e-07, No Iterations 0
time step continuity errors : sum local = 9.45076e-09, global = 9.94271e-20, cumulative = 8.71766e-19
ExecutionTime = 0.04 s  ClockTime = 1 s

Time = 0.635

Courant Number mean: 0.222159 max: 0.852134
smoothSolver:  Solving for Ux, Initial residual = 5.07172e-08, Final residual = 5.07172e-08, No Iterations 0
smoothSolver:  Solving for Uy, Initial residual = 1.14009e-07, Final residual = 1.14009e-07, No Iterations 0
DICPCG:  Solving for p, Initial residual = 9.76147e-07, Final residual = 9.76147e-07, No Iterations 0
time step continuity errors : sum local = 9.61386e-09, global = 1.77348e-19, cumulative = 1.04911e-18
DICPCG:  Solving for p, Initial residual = 9.92394e-07, Final residual = 9.92394e-07, No Iterations 0
time step continuity errors : sum local = 9.74667e-09, global = -4.10364e-19, cumulative = 6.38749e-19
ExecutionTime = 0.04 s  ClockTime = 1 s

Time = 0.64

Courant Number mean: 0.222159 max: 0.852134
smoothSolver:  Solving for Ux, Initial residual = 4.84405e-08, Final residual = 4.84405e-08, No Iterations 0
smoothSolver:  Solving for Uy, Initial residual = 1.08722e-07, Final residual = 1.08722e-07, No Iterations 0
DICPCG:  Solving for p, Initial residual = 1.01054e-06, Final residual = 4.8404e-07, No Iterations 1
time step continuity errors : sum local = 5.5692e-09, global = 3.43363e-19, cumulative = 9.82112e-19
DICPCG:  Solving for p, Initial residual = 8.41661e-07, Final residual = 8.41661e-07, No Iterations 0
time step continuity errors : sum local = 8.50024e-09, global = -1.92071e-19, cumulative = 7.9004e-19
ExecutionTime = 0.05 s  ClockTime = 1 s

Time = 0.645

Courant Number mean: 0.222159 max: 0.852134
smoothSolver:  Solving for Ux, Initial residual = 6.30353e-08, Final residual = 6.30353e-08, No Iterations 0
smoothSolver:  Solving for Uy, Initial residual = 1.32178e-07, Final residual = 1.32178e-07, No Iterations 0
DICPCG:  Solving for p, Initial residual = 1.24688e-06, Final residual = 3.07092e-07, No Iterations 1
time step continuity errors : sum local = 4.11594e-09, global = 5.15664e-19, cumulative = 1.3057e-18
DICPCG:  Solving for p, Initial residual = 5.08459e-07, Final residual = 5.08459e-07, No Iterations 0
time step continuity errors : sum local = 5.76659e-09, global = 4.48001e-19, cumulative = 1.75371e-18
ExecutionTime = 0.05 s  ClockTime = 1 s

Time = 0.65

Courant Number mean: 0.222159 max: 0.852134
smoothSolver:  Solving for Ux, Initial residual = 5.40919e-08, Final residual = 5.40919e-08, No Iterations 0
smoothSolver:  Solving for Uy, Initial residual = 1.16179e-07, Final residual = 1.16179e-07, No Iterations 0
DICPCG:  Solving for p, Initial residual = 7.85122e-07, Final residual = 7.85122e-07, No Iterations 0
time step continuity errors : sum local = 8.03446e-09, global = -7.15677e-19, cumulative = 1.03803e-18
DICPCG:  Solving for p, Initial residual = 9.20832e-07, Final residual = 9.20832e-07, No Iterations 0
time step continuity errors : sum local = 9.1469e-09, global = 1.18461e-18, cumulative = 2.22263e-18
ExecutionTime = 0.05 s  ClockTime = 1 s

Time = 0.655

Courant Number mean: 0.222159 max: 0.852134
smoothSolver:  Solving for Ux, Initial residual = 4.80846e-08, Final residual = 4.80846e-08, No Iterations 0
smoothSolver:  Solving for Uy, Initial residual = 1.04746e-07, Final residual = 1.04746e-07, No Iterations 0
DICPCG:  Solving for p, Initial residual = 1.05012e-06, Final residual = 3.47821e-07, No Iterations 1
time step continuity errors : sum local = 4.45858e-09, global = -5.3957e-19, cumulative = 1.68306e-18
DICPCG:  Solving for p, Initial residual = 6.45418e-07, Final residual = 6.45418e-07, No Iterations 0
time step continuity errors : sum local = 6.89839e-09, global = -1.12472e-18, cumulative = 5.58347e-19
ExecutionTime = 0.05 s  ClockTime = 1 s

Time = 0.66

Courant Number mean: 0.222159 max: 0.852134
smoothSolver:  Solving for Ux, Initial residual = 5.06168e-08, Final residual = 5.06168e-08, No Iterations 0
smoothSolver:  Solving for Uy, Initial residual = 1.09308e-07, Final residual = 1.09308e-07, No Iterations 0
DICPCG:  Solving for p, Initial residual = 9.84468e-07, Final residual = 9.84468e-07, No Iterations 0
time step continuity errors : sum local = 9.67766e-09, global = 3.08704e-19, cumulative = 8.67051e-19
DICPCG:  Solving for p, Initial residual = 1.15445e-06, Final residual = 2.59505e-07, No Iterations 1
time step continuity errors : sum local = 3.73779e-09, global = 1.02074e-18, cumulative = 1.88779e-18
ExecutionTime = 0.06 s  ClockTime = 1 s

Time = 0.665

Courant Number mean: 0.222159 max: 0.852134
smoothSolver:  Solving for Ux, Initial residual = 5.4977e-08, Final residual = 5.4977e-08, No Iterations 0
smoothSolver:  Solving for Uy, Initial residual = 1.10415e-07, Final residual = 1.10415e-07, No Iterations 0
DICPCG:  Solving for p, Initial residual = 6.08902e-07, Final residual = 6.08902e-07, No Iterations 0
time step continuity errors : sum local = 6.60187e-09, global = 3.80669e-19, cumulative = 2.26846e-18
DICPCG:  Solving for p, Initial residual = 8.21522e-07, Final residual = 8.21522e-07, No Iterations 0
time step continuity errors : sum local = 8.34462e-09, global = -2.43026e-19, cumulative = 2.02543e-18
ExecutionTime = 0.06 s  ClockTime = 1 s

Time = 0.67

Courant Number mean: 0.222159 max: 0.852134
smoothSolver:  Solving for Ux, Initial residual = 4.02661e-08, Final residual = 4.02661e-08, No Iterations 0
smoothSolver:  Solving for Uy, Initial residual = 8.47905e-08, Final residual = 8.47905e-08, No Iterations 0
DICPCG:  Solving for p, Initial residual = 1.01449e-06, Final residual = 2.28982e-07, No Iterations 1
time step continuity errors : sum local = 3.48183e-09, global = -3.20781e-19, cumulative = 1.70465e-18
DICPCG:  Solving for p, Initial residual = 4.6908e-07, Final residual = 4.6908e-07, No Iterations 0
time step continuity errors : sum local = 5.44657e-09, global = -4.15327e-19, cumulative = 1.28933e-18
ExecutionTime = 0.06 s  ClockTime = 1 s

Time = 0.675

Courant Number mean: 0.222159 max: 0.852134
smoothSolver:  Solving for Ux, Initial residual = 4.22268e-08, Final residual = 4.22268e-08, No Iterations 0
smoothSolver:  Solving for Uy, Initial residual = 8.95006e-08, Final residual = 8.95006e-08, No Iterations 0
DICPCG:  Solving for p, Initial residual = 7.56815e-07, Final residual = 7.56815e-07, No Iterations 0
time step continuity errors : sum local = 7.80205e-09, global = -1.00097e-18, cumulative = 2.88355e-19
DICPCG:  Solving for p, Initial residual = 9.00379e-07, Final residual = 9.00379e-07, No Iterations 0
time step continuity errors : sum local = 8.97743e-09, global = 1.66338e-18, cumulative = 1.95173e-18
ExecutionTime = 0.06 s  ClockTime = 1 s

Time = 0.68

Courant Number mean: 0.222159 max: 0.852134
smoothSolver:  Solving for Ux, Initial residual = 3.45614e-08, Final residual = 3.45614e-08, No Iterations 0
smoothSolver:  Solving for Uy, Initial residual = 7.42851e-08, Final residual = 7.42851e-08, No Iterations 0
DICPCG:  Solving for p, Initial residual = 1.03009e-06, Final residual = 2.18917e-07, No Iterations 1
time step continuity errors : sum local = 3.38622e-09, global = 1.30281e-19, cumulative = 2.08201e-18
DICPCG:  Solving for p, Initial residual = 5.00792e-07, Final residual = 5.00792e-07, No Iterations 0
time step continuity errors : sum local = 5.69521e-09, global = 3.29221e-20, cumulative = 2.11494e-18
ExecutionTime = 0.06 s  ClockTime = 1 s

Time = 0.685

Courant Number mean: 0.222159 max: 0.852134
smoothSolver:  Solving for Ux, Initial residual = 4.13481e-08, Final residual = 4.13481e-08, No Iterations 0
smoothSolver:  Solving for Uy, Initial residual = 8.78589e-08, Final residual = 8.78589e-08, No Iterations 0
DICPCG:  Solving for p, Initial residual = 8.28334e-07, Final residual = 8.28334e-07, No Iterations 0
time step continuity errors : sum local = 8.37786e-09, global = -6.15175e-19, cumulative = 1.49976e-18
DICPCG:  Solving for p, Initial residual = 9.95247e-07, Final residual = 9.95247e-07, No Iterations 0
time step continuity errors : sum local = 9.74519e-09, global = 5.40893e-19, cumulative = 2.04065e-18
ExecutionTime = 0.06 s  ClockTime = 1 s

Time = 0.69

Courant Number mean: 0.222159 max: 0.852134
smoothSolver:  Solving for Ux, Initial residual = 3.28173e-08, Final residual = 3.28173e-08, No Iterations 0
smoothSolver:  Solving for Uy, Initial residual = 7.12325e-08, Final residual = 7.12325e-08, No Iterations 0
DICPCG:  Solving for p, Initial residual = 1.14839e-06, Final residual = 2.40596e-07, No Iterations 1
time step continuity errors : sum local = 3.55486e-09, global = 6.79446e-19, cumulative = 2.7201e-18
DICPCG:  Solving for p, Initial residual = 5.42205e-07, Final residual = 5.42205e-07, No Iterations 0
time step continuity errors : sum local = 6.02511e-09, global = 7.5108e-19, cumulative = 3.47118e-18
ExecutionTime = 0.06 s  ClockTime = 1 s

Time = 0.695

Courant Number mean: 0.222159 max: 0.852134
smoothSolver:  Solving for Ux, Initial residual = 4.08357e-08, Final residual = 4.08357e-08, No Iterations 0
smoothSolver:  Solving for Uy, Initial residual = 8.82436e-08, Final residual = 8.82436e-08, No Iterations 0
DICPCG:  Solving for p, Initial residual = 9.12521e-07, Final residual = 9.12521e-07, No Iterations 0
time step continuity errors : sum local = 9.05877e-09, global = 5.79771e-19, cumulative = 4.05095e-18
DICPCG:  Solving for p, Initial residual = 1.10773e-06, Final residual = 2.49747e-07, No Iterations 1
time step continuity errors : sum local = 3.62403e-09, global = 1.2454e-18, cumulative = 5.29636e-18
ExecutionTime = 0.06 s  ClockTime = 1 s

Time = 0.7

Courant Number mean: 0.222159 max: 0.852134
smoothSolver:  Solving for Ux, Initial residual = 4.36943e-08, Final residual = 4.36943e-08, No Iterations 0
smoothSolver:  Solving for Uy, Initial residual = 9.2917e-08, Final residual = 9.2917e-08, No Iterations 0
DICPCG:  Solving for p, Initial residual = 5.86854e-07, Final residual = 5.86854e-07, No Iterations 0
time step continuity errors : sum local = 6.38658e-09, global = 3.54199e-19, cumulative = 5.65055e-18
DICPCG:  Solving for p, Initial residual = 7.98506e-07, Final residual = 7.98506e-07, No Iterations 0
time step continuity errors : sum local = 8.12119e-09, global = -2.01005e-20, cumulative = 5.63045e-18
ExecutionTime = 0.06 s  ClockTime = 1 s

Time = 0.705

Courant Number mean: 0.222159 max: 0.852134
smoothSolver:  Solving for Ux, Initial residual = 3.06746e-08, Final residual = 3.06746e-08, No Iterations 0
smoothSolver:  Solving for Uy, Initial residual = 6.32144e-08, Final residual = 6.32144e-08, No Iterations 0
DICPCG:  Solving for p, Initial residual = 9.89204e-07, Final residual = 9.89204e-07, No Iterations 0
time step continuity errors : sum local = 9.68407e-09, global = 1.22663e-18, cumulative = 6.85708e-18
DICPCG:  Solving for p, Initial residual = 1.09709e-06, Final residual = 2.4859e-07, No Iterations 1
time step continuity errors : sum local = 3.61119e-09, global = -4.11936e-20, cumulative = 6.81589e-18
ExecutionTime = 0.06 s  ClockTime = 1 s

Time = 0.71

Courant Number mean: 0.222159 max: 0.852134
smoothSolver:  Solving for Ux, Initial residual = 4.59697e-08, Final residual = 4.59697e-08, No Iterations 0
smoothSolver:  Solving for Uy, Initial residual = 1.03029e-07, Final residual = 1.03029e-07, No Iterations 0
DICPCG:  Solving for p, Initial residual = 6.43437e-07, Final residual = 6.43437e-07, No Iterations 0
time step continuity errors : sum local = 6.84582e-09, global = -6.27582e-19, cumulative = 6.1883e-18
DICPCG:  Solving for p, Initial residual = 8.93544e-07, Final residual = 8.93544e-07, No Iterations 0
time step continuity errors : sum local = 8.89544e-09, global = 3.76863e-19, cumulative = 6.56517e-18
ExecutionTime = 0.06 s  ClockTime = 1 s

Time = 0.715

Courant Number mean: 0.222159 max: 0.852134
smoothSolver:  Solving for Ux, Initial residual = 2.99823e-08, Final residual = 2.99823e-08, No Iterations 0
smoothSolver:  Solving for Uy, Initial residual = 6.59458e-08, Final residual = 6.59458e-08, No Iterations 0
DICPCG:  Solving for p, Initial residual = 1.12248e-06, Final residual = 2.35837e-07, No Iterations 1
time step continuity errors : sum local = 3.50225e-09, global = -4.81254e-19, cumulative = 6.08391e-18
DICPCG:  Solving for p, Initial residual = 5.08325e-07, Final residual = 5.08325e-07, No Iterations 0
time step continuity errors : sum local = 5.73539e-09, global = 6.37425e-19, cumulative = 6.72134e-18
ExecutionTime = 0.06 s  ClockTime = 1 s

Time = 0.72

Courant Number mean: 0.222159 max: 0.852134
smoothSolver:  Solving for Ux, Initial residual = 3.38277e-08, Final residual = 3.38277e-08, No Iterations 0
smoothSolver:  Solving for Uy, Initial residual = 7.57405e-08, Final residual = 7.57405e-08, No Iterations 0
DICPCG:  Solving for p, Initial residual = 8.3099e-07, Final residual = 8.3099e-07, No Iterations 0
time step continuity errors : sum local = 8.37947e-09, global = 8.51169e-20, cumulative = 6.80646e-18
DICPCG:  Solving for p, Initial residual = 1e-06, Final residual = 2.21537e-07, No Iterations 1
time step continuity errors : sum local = 3.38019e-09, global = 2.05803e-19, cumulative = 7.01226e-18
ExecutionTime = 0.06 s  ClockTime = 1 s

Time = 0.725

Courant Number mean: 0.222159 max: 0.852134
smoothSolver:  Solving for Ux, Initial residual = 3.62506e-08, Final residual = 3.62506e-08, No Iterations 0
smoothSolver:  Solving for Uy, Initial residual = 8.37645e-08, Final residual = 8.37645e-08, No Iterations 0
DICPCG:  Solving for p, Initial residual = 5.23769e-07, Final residual = 5.23769e-07, No Iterations 0
time step continuity errors : sum local = 5.85479e-09, global = -2.34588e-19, cumulative = 6.77767e-18
DICPCG:  Solving for p, Initial residual = 7.07488e-07, Final residual = 7.07488e-07, No Iterations 0
time step continuity errors : sum local = 7.35969e-09, global = 2.58329e-19, cumulative = 7.036e-18
ExecutionTime = 0.07 s  ClockTime = 1 s

Time = 0.73

Courant Number mean: 0.222159 max: 0.852134
smoothSolver:  Solving for Ux, Initial residual = 2.42455e-08, Final residual = 2.42455e-08, No Iterations 0
smoothSolver:  Solving for Uy, Initial residual = 5.48115e-08, Final residual = 5.48115e-08, No Iterations 0
DICPCG:  Solving for p, Initial residual = 8.76848e-07, Final residual = 8.76848e-07, No Iterations 0
time step continuity errors : sum local = 8.74709e-09, global = -6.20551e-19, cumulative = 6.41545e-18
DICPCG:  Solving for p, Initial residual = 9.7197e-07, Final residual = 9.7197e-07, No Iterations 0
time step continuity errors : sum local = 9.52639e-09, global = -6.22371e-19, cumulative = 5.79308e-18
ExecutionTime = 0.07 s  ClockTime = 1 s

Time = 0.735

Courant Number mean: 0.222159 max: 0.852134
smoothSolver:  Solving for Ux, Initial residual = 1.93243e-08, Final residual = 1.93243e-08, No Iterations 0
smoothSolver:  Solving for Uy, Initial residual = 4.32311e-08, Final residual = 4.32311e-08, No Iterations 0
DICPCG:  Solving for p, Initial residual = 1.0586e-06, Final residual = 2.11652e-07, No Iterations 1
time step continuity errors : sum local = 3.29111e-09, global = -2.16721e-20, cumulative = 5.7714e-18
DICPCG:  Solving for p, Initial residual = 5.28866e-07, Final residual = 5.28866e-07, No Iterations 0
time step continuity errors : sum local = 5.8904e-09, global = -2.5229e-19, cumulative = 5.51911e-18
ExecutionTime = 0.07 s  ClockTime = 1 s

Time = 0.74

Courant Number mean: 0.222159 max: 0.852134
smoothSolver:  Solving for Ux, Initial residual = 3.36778e-08, Final residual = 3.36778e-08, No Iterations 0
smoothSolver:  Solving for Uy, Initial residual = 8.05535e-08, Final residual = 8.05535e-08, No Iterations 0
DICPCG:  Solving for p, Initial residual = 8.99816e-07, Final residual = 8.99816e-07, No Iterations 0
time step continuity errors : sum local = 8.92972e-09, global = 1.13903e-19, cumulative = 5.63302e-18
DICPCG:  Solving for p, Initial residual = 1.09918e-06, Final residual = 2.09056e-07, No Iterations 1
time step continuity errors : sum local = 3.26335e-09, global = 1.57636e-18, cumulative = 7.20938e-18
ExecutionTime = 0.07 s  ClockTime = 1 s

Time = 0.745

Courant Number mean: 0.222159 max: 0.852134
smoothSolver:  Solving for Ux, Initial residual = 3.55541e-08, Final residual = 3.55541e-08, No Iterations 0
smoothSolver:  Solving for Uy, Initial residual = 8.59328e-08, Final residual = 8.59328e-08, No Iterations 0
DICPCG:  Solving for p, Initial residual = 5.40607e-07, Final residual = 5.40607e-07, No Iterations 0
time step continuity errors : sum local = 5.97801e-09, global = -4.08296e-19, cumulative = 6.80108e-18
DICPCG:  Solving for p, Initial residual = 7.47375e-07, Final residual = 7.47375e-07, No Iterations 0
time step continuity errors : sum local = 7.67186e-09, global = 1.27469e-19, cumulative = 6.92855e-18
ExecutionTime = 0.07 s  ClockTime = 1 s

Time = 0.75

Courant Number mean: 0.222159 max: 0.852134
smoothSolver:  Solving for Ux, Initial residual = 2.19166e-08, Final residual = 2.19166e-08, No Iterations 0
smoothSolver:  Solving for Uy, Initial residual = 5.26949e-08, Final residual = 5.26949e-08, No Iterations 0
DICPCG:  Solving for p, Initial residual = 9.37451e-07, Final residual = 9.37451e-07, No Iterations 0
time step continuity errors : sum local = 9.22913e-09, global = -1.19693e-19, cumulative = 6.80885e-18
DICPCG:  Solving for p, Initial residual = 1.04574e-06, Final residual = 2.05738e-07, No Iterations 1
time step continuity errors : sum local = 3.22901e-09, global = -1.98358e-19, cumulative = 6.6105e-18
ExecutionTime = 0.07 s  ClockTime = 1 s

Time = 0.755

Courant Number mean: 0.222159 max: 0.852134
smoothSolver:  Solving for Ux, Initial residual = 3.83308e-08, Final residual = 3.83308e-08, No Iterations 0
smoothSolver:  Solving for Uy, Initial residual = 9.38364e-08, Final residual = 9.38364e-08, No Iterations 0
DICPCG:  Solving for p, Initial residual = 5.80408e-07, Final residual = 5.80408e-07, No Iterations 0
time step continuity errors : sum local = 6.29896e-09, global = 1.29603e-18, cumulative = 7.90652e-18
DICPCG:  Solving for p, Initial residual = 8.26894e-07, Final residual = 8.26894e-07, No Iterations 0
time step continuity errors : sum local = 8.31884e-09, global = 3.79014e-19, cumulative = 8.28554e-18
ExecutionTime = 0.07 s  ClockTime = 1 s

Time = 0.76

Courant Number mean: 0.222159 max: 0.852134
smoothSolver:  Solving for Ux, Initial residual = 2.22792e-08, Final residual = 2.22792e-08, No Iterations 0
smoothSolver:  Solving for Uy, Initial residual = 5.49215e-08, Final residual = 5.49215e-08, No Iterations 0
DICPCG:  Solving for p, Initial residual = 1.04896e-06, Final residual = 2.05501e-07, No Iterations 1
time step continuity errors : sum local = 3.22208e-09, global = 4.86217e-19, cumulative = 8.77175e-18
DICPCG:  Solving for p, Initial residual = 4.51247e-07, Final residual = 4.51247e-07, No Iterations 0
time step continuity errors : sum local = 5.23487e-09, global = -9.86826e-19, cumulative = 7.78493e-18
ExecutionTime = 0.07 s  ClockTime = 1 s

Time = 0.765

Courant Number mean: 0.222159 max: 0.852134
smoothSolver:  Solving for Ux, Initial residual = 2.60102e-08, Final residual = 2.60102e-08, No Iterations 0
smoothSolver:  Solving for Uy, Initial residual = 6.42876e-08, Final residual = 6.42876e-08, No Iterations 0
DICPCG:  Solving for p, Initial residual = 7.5313e-07, Final residual = 7.5313e-07, No Iterations 0
time step continuity errors : sum local = 7.70801e-09, global = -2.96958e-20, cumulative = 7.75523e-18
DICPCG:  Solving for p, Initial residual = 9.12794e-07, Final residual = 9.12794e-07, No Iterations 0
time step continuity errors : sum local = 9.0164e-09, global = 2.52042e-19, cumulative = 8.00727e-18
ExecutionTime = 0.07 s  ClockTime = 1 s

Time = 0.77

Courant Number mean: 0.222159 max: 0.852134
smoothSolver:  Solving for Ux, Initial residual = 1.65177e-08, Final residual = 1.65177e-08, No Iterations 0
smoothSolver:  Solving for Uy, Initial residual = 3.99101e-08, Final residual = 3.99101e-08, No Iterations 0
DICPCG:  Solving for p, Initial residual = 1.05643e-06, Final residual = 2.0575e-07, No Iterations 1
time step continuity errors : sum local = 3.219e-09, global = 3.61561e-19, cumulative = 8.36883e-18
DICPCG:  Solving for p, Initial residual = 4.88491e-07, Final residual = 4.88491e-07, No Iterations 0
time step continuity errors : sum local = 5.53618e-09, global = 4.26411e-19, cumulative = 8.79525e-18
ExecutionTime = 0.07 s  ClockTime = 1 s

Time = 0.775

Courant Number mean: 0.222159 max: 0.852134
smoothSolver:  Solving for Ux, Initial residual = 2.78341e-08, Final residual = 2.78341e-08, No Iterations 0
smoothSolver:  Solving for Uy, Initial residual = 6.97182e-08, Final residual = 6.97182e-08, No Iterations 0
DICPCG:  Solving for p, Initial residual = 8.42122e-07, Final residual = 8.42122e-07, No Iterations 0
time step continuity errors : sum local = 8.43416e-09, global = -3.98949e-19, cumulative = 8.3963e-18
DICPCG:  Solving for p, Initial residual = 1.02801e-06, Final residual = 2.05464e-07, No Iterations 1
time step continuity errors : sum local = 3.21293e-09, global = 7.45951e-19, cumulative = 9.14225e-18
ExecutionTime = 0.07 s  ClockTime = 1 s

Time = 0.78

Courant Number mean: 0.222159 max: 0.852134
smoothSolver:  Solving for Ux, Initial residual = 3.09486e-08, Final residual = 3.09486e-08, No Iterations 0
smoothSolver:  Solving for Uy, Initial residual = 7.62704e-08, Final residual = 7.62704e-08, No Iterations 0
DICPCG:  Solving for p, Initial residual = 5.15256e-07, Final residual = 5.15256e-07, No Iterations 0
time step continuity errors : sum local = 5.75042e-09, global = 4.9879e-20, cumulative = 9.19213e-18
DICPCG:  Solving for p, Initial residual = 7.18318e-07, Final residual = 7.18318e-07, No Iterations 0
time step continuity errors : sum local = 7.4143e-09, global = -9.92617e-20, cumulative = 9.09287e-18
ExecutionTime = 0.07 s  ClockTime = 1 s

Time = 0.785

Courant Number mean: 0.222159 max: 0.852134
smoothSolver:  Solving for Ux, Initial residual = 1.72913e-08, Final residual = 1.72913e-08, No Iterations 0
smoothSolver:  Solving for Uy, Initial residual = 4.24947e-08, Final residual = 4.24947e-08, No Iterations 0
DICPCG:  Solving for p, Initial residual = 9.04514e-07, Final residual = 9.04514e-07, No Iterations 0
time step continuity errors : sum local = 8.94009e-09, global = -4.85886e-19, cumulative = 8.60698e-18
DICPCG:  Solving for p, Initial residual = 1.00833e-06, Final residual = 1.99903e-07, No Iterations 1
time step continuity errors : sum local = 3.16277e-09, global = -1.35393e-18, cumulative = 7.25305e-18
ExecutionTime = 0.07 s  ClockTime = 1 s

Time = 0.79

Courant Number mean: 0.222159 max: 0.852134
smoothSolver:  Solving for Ux, Initial residual = 3.44413e-08, Final residual = 3.44413e-08, No Iterations 0
smoothSolver:  Solving for Uy, Initial residual = 8.57419e-08, Final residual = 8.57419e-08, No Iterations 0
DICPCG:  Solving for p, Initial residual = 5.70095e-07, Final residual = 5.70095e-07, No Iterations 0
time step continuity errors : sum local = 6.19639e-09, global = 7.90123e-19, cumulative = 8.04317e-18
DICPCG:  Solving for p, Initial residual = 8.11265e-07, Final residual = 8.11265e-07, No Iterations 0
time step continuity errors : sum local = 8.17282e-09, global = -5.99044e-19, cumulative = 7.44413e-18
ExecutionTime = 0.08 s  ClockTime = 1 s

Time = 0.795

Courant Number mean: 0.222159 max: 0.852134
smoothSolver:  Solving for Ux, Initial residual = 1.84097e-08, Final residual = 1.84097e-08, No Iterations 0
smoothSolver:  Solving for Uy, Initial residual = 4.63889e-08, Final residual = 4.63889e-08, No Iterations 0
DICPCG:  Solving for p, Initial residual = 1.02705e-06, Final residual = 1.99918e-07, No Iterations 1
time step continuity errors : sum local = 3.15892e-09, global = 1.90169e-19, cumulative = 7.6343e-18
DICPCG:  Solving for p, Initial residual = 4.42668e-07, Final residual = 4.42668e-07, No Iterations 0
time step continuity errors : sum local = 5.14737e-09, global = -5.04828e-19, cumulative = 7.12947e-18
ExecutionTime = 0.08 s  ClockTime = 1 s

Time = 0.8

Courant Number mean: 0.222159 max: 0.852134
smoothSolver:  Solving for Ux, Initial residual = 2.313e-08, Final residual = 2.313e-08, No Iterations 0
smoothSolver:  Solving for Uy, Initial residual = 5.79774e-08, Final residual = 5.79774e-08, No Iterations 0
DICPCG:  Solving for p, Initial residual = 7.48293e-07, Final residual = 7.48293e-07, No Iterations 0
time step continuity errors : sum local = 7.65135e-09, global = -7.18985e-19, cumulative = 6.41048e-18
DICPCG:  Solving for p, Initial residual = 9.10417e-07, Final residual = 9.10417e-07, No Iterations 0
time step continuity errors : sum local = 8.97987e-09, global = 2.58742e-19, cumulative = 6.66923e-18
ExecutionTime = 0.08 s  ClockTime = 1 s

Time = 0.805

Courant Number mean: 0.222159 max: 0.852134
smoothSolver:  Solving for Ux, Initial residual = 1.33763e-08, Final residual = 1.33763e-08, No Iterations 0
smoothSolver:  Solving for Uy, Initial residual = 3.27478e-08, Final residual = 3.27478e-08, No Iterations 0
DICPCG:  Solving for p, Initial residual = 1.05531e-06, Final residual = 1.96499e-07, No Iterations 1
time step continuity errors : sum local = 3.12569e-09, global = -5.22613e-19, cumulative = 6.14661e-18
DICPCG:  Solving for p, Initial residual = 4.87507e-07, Final residual = 4.87507e-07, No Iterations 0
time step continuity errors : sum local = 5.51038e-09, global = 1.48313e-19, cumulative = 6.29493e-18
ExecutionTime = 0.08 s  ClockTime = 1 s

Time = 0.81

Courant Number mean: 0.222159 max: 0.852134
smoothSolver:  Solving for Ux, Initial residual = 2.57667e-08, Final residual = 2.57667e-08, No Iterations 0
smoothSolver:  Solving for Uy, Initial residual = 6.52481e-08, Final residual = 6.52481e-08, No Iterations 0
DICPCG:  Solving for p, Initial residual = 8.39074e-07, Final residual = 8.39074e-07, No Iterations 0
time step continuity errors : sum local = 8.39122e-09, global = -2.41123e-19, cumulative = 6.0538e-18
DICPCG:  Solving for p, Initial residual = 1.02663e-06, Final residual = 1.97719e-07, No Iterations 1
time step continuity errors : sum local = 3.13106e-09, global = 2.86204e-19, cumulative = 6.34001e-18
ExecutionTime = 0.08 s  ClockTime = 1 s

Time = 0.815

Courant Number mean: 0.222159 max: 0.852134
smoothSolver:  Solving for Ux, Initial residual = 2.90742e-08, Final residual = 2.90742e-08, No Iterations 0
smoothSolver:  Solving for Uy, Initial residual = 7.30475e-08, Final residual = 7.30475e-08, No Iterations 0
DICPCG:  Solving for p, Initial residual = 5.08472e-07, Final residual = 5.08472e-07, No Iterations 0
time step continuity errors : sum local = 5.67615e-09, global = 2.19782e-19, cumulative = 6.55979e-18
DICPCG:  Solving for p, Initial residual = 7.15091e-07, Final residual = 7.15091e-07, No Iterations 0
time step continuity errors : sum local = 7.36903e-09, global = -2.08044e-18, cumulative = 4.47935e-18
ExecutionTime = 0.08 s  ClockTime = 1 s

Time = 0.82

Courant Number mean: 0.222159 max: 0.852134
smoothSolver:  Solving for Ux, Initial residual = 1.51363e-08, Final residual = 1.51363e-08, No Iterations 0
smoothSolver:  Solving for Uy, Initial residual = 3.83433e-08, Final residual = 3.83433e-08, No Iterations 0
DICPCG:  Solving for p, Initial residual = 9.01344e-07, Final residual = 9.01344e-07, No Iterations 0
time step continuity errors : sum local = 8.89514e-09, global = -1.89093e-19, cumulative = 4.29025e-18
DICPCG:  Solving for p, Initial residual = 1.00571e-06, Final residual = 1.96675e-07, No Iterations 1
time step continuity errors : sum local = 3.11675e-09, global = -1.83634e-19, cumulative = 4.10662e-18
ExecutionTime = 0.08 s  ClockTime = 1 s

Time = 0.825

Courant Number mean: 0.222159 max: 0.852134
smoothSolver:  Solving for Ux, Initial residual = 3.31628e-08, Final residual = 3.31628e-08, No Iterations 0
smoothSolver:  Solving for Uy, Initial residual = 8.42799e-08, Final residual = 8.42799e-08, No Iterations 0
DICPCG:  Solving for p, Initial residual = 5.6878e-07, Final residual = 5.6878e-07, No Iterations 0
time step continuity errors : sum local = 6.16565e-09, global = 3.00101e-19, cumulative = 4.40672e-18
DICPCG:  Solving for p, Initial residual = 8.09851e-07, Final residual = 8.09851e-07, No Iterations 0
time step continuity errors : sum local = 8.14112e-09, global = 3.0647e-19, cumulative = 4.71319e-18
ExecutionTime = 0.08 s  ClockTime = 1 s

Time = 0.83

Courant Number mean: 0.222159 max: 0.852134
smoothSolver:  Solving for Ux, Initial residual = 1.69068e-08, Final residual = 1.69068e-08, No Iterations 0
smoothSolver:  Solving for Uy, Initial residual = 4.37005e-08, Final residual = 4.37005e-08, No Iterations 0
DICPCG:  Solving for p, Initial residual = 1.02837e-06, Final residual = 1.99181e-07, No Iterations 1
time step continuity errors : sum local = 3.13238e-09, global = 1.74568e-18, cumulative = 6.45887e-18
DICPCG:  Solving for p, Initial residual = 4.45183e-07, Final residual = 4.45183e-07, No Iterations 0
time step continuity errors : sum local = 5.14734e-09, global = 7.38341e-19, cumulative = 7.19722e-18
ExecutionTime = 0.08 s  ClockTime = 1 s

Time = 0.835

Courant Number mean: 0.222159 max: 0.852134
smoothSolver:  Solving for Ux, Initial residual = 2.21196e-08, Final residual = 2.21196e-08, No Iterations 0
smoothSolver:  Solving for Uy, Initial residual = 5.66032e-08, Final residual = 5.66032e-08, No Iterations 0
DICPCG:  Solving for p, Initial residual = 7.51916e-07, Final residual = 7.51916e-07, No Iterations 0
time step continuity errors : sum local = 7.66024e-09, global = 4.72155e-19, cumulative = 7.66937e-18
DICPCG:  Solving for p, Initial residual = 9.13944e-07, Final residual = 9.13944e-07, No Iterations 0
time step continuity errors : sum local = 8.98793e-09, global = 7.10879e-19, cumulative = 8.38025e-18
ExecutionTime = 0.08 s  ClockTime = 1 s

Time = 0.84

Courant Number mean: 0.222159 max: 0.852134
smoothSolver:  Solving for Ux, Initial residual = 1.17405e-08, Final residual = 1.17405e-08, No Iterations 0
smoothSolver:  Solving for Uy, Initial residual = 3.04744e-08, Final residual = 3.04744e-08, No Iterations 0
DICPCG:  Solving for p, Initial residual = 1.05841e-06, Final residual = 1.99562e-07, No Iterations 1
time step continuity errors : sum local = 3.12974e-09, global = 2.74459e-19, cumulative = 8.65471e-18
DICPCG:  Solving for p, Initial residual = 4.94423e-07, Final residual = 4.94423e-07, No Iterations 0
time step continuity errors : sum local = 5.54593e-09, global = 5.43292e-19, cumulative = 9.198e-18
ExecutionTime = 0.08 s  ClockTime = 1 s

Time = 0.845

Courant Number mean: 0.222159 max: 0.852134
smoothSolver:  Solving for Ux, Initial residual = 2.53637e-08, Final residual = 2.53637e-08, No Iterations 0
smoothSolver:  Solving for Uy, Initial residual = 6.56373e-08, Final residual = 6.56373e-08, No Iterations 0
DICPCG:  Solving for p, Initial residual = 8.51472e-07, Final residual = 8.51472e-07, No Iterations 0
time step continuity errors : sum local = 8.47163e-09, global = 1.28511e-18, cumulative = 1.04831e-17
DICPCG:  Solving for p, Initial residual = 1.04232e-06, Final residual = 2.00157e-07, No Iterations 1
time step continuity errors : sum local = 3.12968e-09, global = 8.16427e-20, cumulative = 1.05648e-17
ExecutionTime = 0.08 s  ClockTime = 1 s

Time = 0.85

Courant Number mean: 0.222159 max: 0.852134
smoothSolver:  Solving for Ux, Initial residual = 2.91624e-08, Final residual = 2.91624e-08, No Iterations 0
smoothSolver:  Solving for Uy, Initial residual = 7.46155e-08, Final residual = 7.46155e-08, No Iterations 0
DICPCG:  Solving for p, Initial residual = 5.21166e-07, Final residual = 5.21166e-07, No Iterations 0
time step continuity errors : sum local = 5.75872e-09, global = -1.38139e-19, cumulative = 1.04266e-17
DICPCG:  Solving for p, Initial residual = 7.33618e-07, Final residual = 7.33618e-07, No Iterations 0
time step continuity errors : sum local = 7.49939e-09, global = 6.20137e-19, cumulative = 1.10467e-17
ExecutionTime = 0.09 s  ClockTime = 1 s

Time = 0.855

Courant Number mean: 0.222159 max: 0.852134
smoothSolver:  Solving for Ux, Initial residual = 1.46903e-08, Final residual = 1.46903e-08, No Iterations 0
smoothSolver:  Solving for Uy, Initial residual = 3.82808e-08, Final residual = 3.82808e-08, No Iterations 0
DICPCG:  Solving for p, Initial residual = 9.2426e-07, Final residual = 9.2426e-07, No Iterations 0
time step continuity errors : sum local = 9.06145e-09, global = 4.33856e-19, cumulative = 1.14806e-17
DICPCG:  Solving for p, Initial residual = 1.03067e-06, Final residual = 1.97877e-07, No Iterations 1
time step continuity errors : sum local = 3.10493e-09, global = -2.00178e-19, cumulative = 1.12804e-17
ExecutionTime = 0.09 s  ClockTime = 1 s

Time = 0.86

Courant Number mean: 0.222159 max: 0.852134
smoothSolver:  Solving for Ux, Initial residual = 3.3927e-08, Final residual = 3.3927e-08, No Iterations 0
smoothSolver:  Solving for Uy, Initial residual = 8.73435e-08, Final residual = 8.73435e-08, No Iterations 0
DICPCG:  Solving for p, Initial residual = 5.83149e-07, Final residual = 5.83149e-07, No Iterations 0
time step continuity errors : sum local = 6.26169e-09, global = -1.84048e-19, cumulative = 1.10964e-17
DICPCG:  Solving for p, Initial residual = 8.38003e-07, Final residual = 8.38003e-07, No Iterations 0
time step continuity errors : sum local = 8.3501e-09, global = -6.33372e-19, cumulative = 1.0463e-17
ExecutionTime = 0.09 s  ClockTime = 1 s

Time = 0.865

Courant Number mean: 0.222159 max: 0.852134
smoothSolver:  Solving for Ux, Initial residual = 1.69891e-08, Final residual = 1.69891e-08, No Iterations 0
smoothSolver:  Solving for Uy, Initial residual = 4.47802e-08, Final residual = 4.47802e-08, No Iterations 0
DICPCG:  Solving for p, Initial residual = 1.0653e-06, Final residual = 1.97903e-07, No Iterations 1
time step continuity errors : sum local = 3.09987e-09, global = -1.06301e-18, cumulative = 9.4e-18
DICPCG:  Solving for p, Initial residual = 4.55655e-07, Final residual = 4.55655e-07, No Iterations 0
time step continuity errors : sum local = 5.21099e-09, global = 7.49426e-19, cumulative = 1.01494e-17
ExecutionTime = 0.09 s  ClockTime = 1 s

Time = 0.87

Courant Number mean: 0.222159 max: 0.852134
smoothSolver:  Solving for Ux, Initial residual = 2.27496e-08, Final residual = 2.27496e-08, No Iterations 0
smoothSolver:  Solving for Uy, Initial residual = 5.8764e-08, Final residual = 5.8764e-08, No Iterations 0
DICPCG:  Solving for p, Initial residual = 7.77135e-07, Final residual = 7.77135e-07, No Iterations 0
time step continuity errors : sum local = 7.84464e-09, global = 1.26459e-18, cumulative = 1.1414e-17
DICPCG:  Solving for p, Initial residual = 9.47154e-07, Final residual = 9.47154e-07, No Iterations 0
time step continuity errors : sum local = 9.23779e-09, global = 6.32462e-19, cumulative = 1.20465e-17
ExecutionTime = 0.09 s  ClockTime = 1 s

Time = 0.875

Courant Number mean: 0.222159 max: 0.852134
smoothSolver:  Solving for Ux, Initial residual = 1.16914e-08, Final residual = 1.16914e-08, No Iterations 0
smoothSolver:  Solving for Uy, Initial residual = 3.09545e-08, Final residual = 3.09545e-08, No Iterations 0
DICPCG:  Solving for p, Initial residual = 1.0995e-06, Final residual = 1.94546e-07, No Iterations 1
time step continuity errors : sum local = 3.06605e-09, global = -2.10848e-19, cumulative = 1.18356e-17
DICPCG:  Solving for p, Initial residual = 5.02439e-07, Final residual = 5.02439e-07, No Iterations 0
time step continuity errors : sum local = 5.58902e-09, global = 4.88533e-19, cumulative = 1.23242e-17
ExecutionTime = 0.09 s  ClockTime = 1 s

Time = 0.88

Courant Number mean: 0.222159 max: 0.852134
smoothSolver:  Solving for Ux, Initial residual = 2.63754e-08, Final residual = 2.63754e-08, No Iterations 0
smoothSolver:  Solving for Uy, Initial residual = 6.8467e-08, Final residual = 6.8467e-08, No Iterations 0
DICPCG:  Solving for p, Initial residual = 8.8018e-07, Final residual = 8.8018e-07, No Iterations 0
time step continuity errors : sum local = 8.68424e-09, global = -6.08474e-19, cumulative = 1.17157e-17
DICPCG:  Solving for p, Initial residual = 1.08054e-06, Final residual = 1.95133e-07, No Iterations 1
time step continuity errors : sum local = 3.0656e-09, global = 1.58604e-18, cumulative = 1.33017e-17
ExecutionTime = 0.09 s  ClockTime = 1 s

Time = 0.885

Courant Number mean: 0.222159 max: 0.852134
smoothSolver:  Solving for Ux, Initial residual = 3.01621e-08, Final residual = 3.01621e-08, No Iterations 0
smoothSolver:  Solving for Uy, Initial residual = 7.74048e-08, Final residual = 7.74048e-08, No Iterations 0
DICPCG:  Solving for p, Initial residual = 5.27131e-07, Final residual = 5.27131e-07, No Iterations 0
time step continuity errors : sum local = 5.78453e-09, global = -1.12827e-19, cumulative = 1.31889e-17
DICPCG:  Solving for p, Initial residual = 7.50724e-07, Final residual = 7.50724e-07, No Iterations 0
time step continuity errors : sum local = 7.61648e-09, global = 7.26347e-19, cumulative = 1.39152e-17
ExecutionTime = 0.09 s  ClockTime = 1 s

Time = 0.89

Courant Number mean: 0.222159 max: 0.852134
smoothSolver:  Solving for Ux, Initial residual = 1.51039e-08, Final residual = 1.51039e-08, No Iterations 0
smoothSolver:  Solving for Uy, Initial residual = 3.92713e-08, Final residual = 3.92713e-08, No Iterations 0
DICPCG:  Solving for p, Initial residual = 9.51794e-07, Final residual = 9.51794e-07, No Iterations 0
time step continuity errors : sum local = 9.264e-09, global = -1.06375e-19, cumulative = 1.38089e-17
DICPCG:  Solving for p, Initial residual = 1.06515e-06, Final residual = 1.90515e-07, No Iterations 1
time step continuity errors : sum local = 3.02155e-09, global = 9.16516e-19, cumulative = 1.47254e-17
ExecutionTime = 0.09 s  ClockTime = 1 s

Time = 0.895

Courant Number mean: 0.222159 max: 0.852134
smoothSolver:  Solving for Ux, Initial residual = 3.51025e-08, Final residual = 3.51025e-08, No Iterations 0
smoothSolver:  Solving for Uy, Initial residual = 9.03894e-08, Final residual = 9.03894e-08, No Iterations 0
DICPCG:  Solving for p, Initial residual = 5.90124e-07, Final residual = 5.90124e-07, No Iterations 0
time step continuity errors : sum local = 6.29598e-09, global = -1.51374e-20, cumulative = 1.47102e-17
DICPCG:  Solving for p, Initial residual = 8.56306e-07, Final residual = 8.56306e-07, No Iterations 0
time step continuity errors : sum local = 8.4773e-09, global = -9.45219e-19, cumulative = 1.3765e-17
ExecutionTime = 0.09 s  ClockTime = 1 s

Time = 0.9

Courant Number mean: 0.222159 max: 0.852134
smoothSolver:  Solving for Ux, Initial residual = 1.76113e-08, Final residual = 1.76113e-08, No Iterations 0
smoothSolver:  Solving for Uy, Initial residual = 4.61076e-08, Final residual = 4.61076e-08, No Iterations 0
DICPCG:  Solving for p, Initial residual = 1.09333e-06, Final residual = 1.93541e-07, No Iterations 1
time step continuity errors : sum local = 3.04147e-09, global = -3.14908e-19, cumulative = 1.34501e-17
DICPCG:  Solving for p, Initial residual = 4.56519e-07, Final residual = 4.56519e-07, No Iterations 0
time step continuity errors : sum local = 5.19545e-09, global = 5.43292e-19, cumulative = 1.39934e-17
ExecutionTime = 0.1 s  ClockTime = 1 s

Time = 0.905

Courant Number mean: 0.222159 max: 0.852134
smoothSolver:  Solving for Ux, Initial residual = 2.34184e-08, Final residual = 2.34184e-08, No Iterations 0
smoothSolver:  Solving for Uy, Initial residual = 6.03182e-08, Final residual = 6.03182e-08, No Iterations 0
DICPCG:  Solving for p, Initial residual = 7.91698e-07, Final residual = 7.91698e-07, No Iterations 0
time step continuity errors : sum local = 7.94148e-09, global = 4.88037e-20, cumulative = 1.40422e-17
DICPCG:  Solving for p, Initial residual = 9.69509e-07, Final residual = 9.69509e-07, No Iterations 0
time step continuity errors : sum local = 9.39857e-09, global = -3.39971e-19, cumulative = 1.37022e-17
ExecutionTime = 0.1 s  ClockTime = 1 s

Time = 0.91

Courant Number mean: 0.222159 max: 0.852134
smoothSolver:  Solving for Ux, Initial residual = 1.19478e-08, Final residual = 1.19478e-08, No Iterations 0
smoothSolver:  Solving for Uy, Initial residual = 3.12883e-08, Final residual = 3.12883e-08, No Iterations 0
DICPCG:  Solving for p, Initial residual = 1.12875e-06, Final residual = 1.89499e-07, No Iterations 1
time step continuity errors : sum local = 3.00264e-09, global = -5.0458e-20, cumulative = 1.36518e-17
DICPCG:  Solving for p, Initial residual = 5.09696e-07, Final residual = 5.09696e-07, No Iterations 0
time step continuity errors : sum local = 5.62676e-09, global = 6.26176e-20, cumulative = 1.37144e-17
ExecutionTime = 0.1 s  ClockTime = 1 s

Time = 0.915

Courant Number mean: 0.222159 max: 0.852134
smoothSolver:  Solving for Ux, Initial residual = 2.7231e-08, Final residual = 2.7231e-08, No Iterations 0
smoothSolver:  Solving for Uy, Initial residual = 7.0482e-08, Final residual = 7.0482e-08, No Iterations 0
DICPCG:  Solving for p, Initial residual = 9.00866e-07, Final residual = 9.00866e-07, No Iterations 0
time step continuity errors : sum local = 8.83229e-09, global = 1.01603e-18, cumulative = 1.47304e-17
DICPCG:  Solving for p, Initial residual = 1.11018e-06, Final residual = 1.93084e-07, No Iterations 1
time step continuity errors : sum local = 3.02764e-09, global = -2.49974e-19, cumulative = 1.44805e-17
ExecutionTime = 0.1 s  ClockTime = 1 s

Time = 0.92

Courant Number mean: 0.222159 max: 0.852134
smoothSolver:  Solving for Ux, Initial residual = 3.11118e-08, Final residual = 3.11118e-08, No Iterations 0
smoothSolver:  Solving for Uy, Initial residual = 7.96802e-08, Final residual = 7.96802e-08, No Iterations 0
DICPCG:  Solving for p, Initial residual = 5.36199e-07, Final residual = 5.36199e-07, No Iterations 0
time step continuity errors : sum local = 5.83784e-09, global = 5.13927e-19, cumulative = 1.49944e-17
DICPCG:  Solving for p, Initial residual = 7.69248e-07, Final residual = 7.69248e-07, No Iterations 0
time step continuity errors : sum local = 7.74741e-09, global = 5.67694e-19, cumulative = 1.55621e-17
ExecutionTime = 0.1 s  ClockTime = 1 s

Time = 0.925

Courant Number mean: 0.222159 max: 0.852134
smoothSolver:  Solving for Ux, Initial residual = 1.55309e-08, Final residual = 1.55309e-08, No Iterations 0
smoothSolver:  Solving for Uy, Initial residual = 4.03433e-08, Final residual = 4.03433e-08, No Iterations 0
DICPCG:  Solving for p, Initial residual = 9.78027e-07, Final residual = 9.78027e-07, No Iterations 0
time step continuity errors : sum local = 9.45822e-09, global = -7.61006e-20, cumulative = 1.5486e-17
DICPCG:  Solving for p, Initial residual = 1.09616e-06, Final residual = 1.88248e-07, No Iterations 1
time step continuity errors : sum local = 2.98253e-09, global = 4.28397e-19, cumulative = 1.59144e-17
ExecutionTime = 0.11 s  ClockTime = 1 s

Time = 0.93

Courant Number mean: 0.222159 max: 0.852134
smoothSolver:  Solving for Ux, Initial residual = 3.63388e-08, Final residual = 3.63388e-08, No Iterations 0
smoothSolver:  Solving for Uy, Initial residual = 9.35757e-08, Final residual = 9.35757e-08, No Iterations 0
DICPCG:  Solving for p, Initial residual = 6.05092e-07, Final residual = 6.05092e-07, No Iterations 0
time step continuity errors : sum local = 6.3986e-09, global = 5.51316e-19, cumulative = 1.64657e-17
DICPCG:  Solving for p, Initial residual = 8.82363e-07, Final residual = 8.82363e-07, No Iterations 0
time step continuity errors : sum local = 8.67091e-09, global = -1.91244e-19, cumulative = 1.62744e-17
ExecutionTime = 0.11 s  ClockTime = 1 s

Time = 0.935

Courant Number mean: 0.222159 max: 0.852134
smoothSolver:  Solving for Ux, Initial residual = 1.82732e-08, Final residual = 1.82732e-08, No Iterations 0
smoothSolver:  Solving for Uy, Initial residual = 4.75933e-08, Final residual = 4.75933e-08, No Iterations 0
DICPCG:  Solving for p, Initial residual = 1.13045e-06, Final residual = 1.92964e-07, No Iterations 1
time step continuity errors : sum local = 3.01694e-09, global = -7.49674e-19, cumulative = 1.55248e-17
DICPCG:  Solving for p, Initial residual = 4.66491e-07, Final residual = 4.66491e-07, No Iterations 0
time step continuity errors : sum local = 5.25738e-09, global = -2.106e-19, cumulative = 1.53142e-17
ExecutionTime = 0.11 s  ClockTime = 1 s

Time = 0.94

Courant Number mean: 0.222159 max: 0.852134
smoothSolver:  Solving for Ux, Initial residual = 2.43061e-08, Final residual = 2.43061e-08, No Iterations 0
smoothSolver:  Solving for Uy, Initial residual = 6.24701e-08, Final residual = 6.24701e-08, No Iterations 0
DICPCG:  Solving for p, Initial residual = 8.14385e-07, Final residual = 8.14385e-07, No Iterations 0
time step continuity errors : sum local = 8.10768e-09, global = -7.87145e-19, cumulative = 1.4527e-17
DICPCG:  Solving for p, Initial residual = 9.99863e-07, Final residual = 9.99863e-07, No Iterations 0
time step continuity errors : sum local = 9.62765e-09, global = 1.97696e-20, cumulative = 1.45468e-17
ExecutionTime = 0.11 s  ClockTime = 1 s

Time = 0.945

Courant Number mean: 0.222159 max: 0.852134
smoothSolver:  Solving for Ux, Initial residual = 1.23511e-08, Final residual = 1.23511e-08, No Iterations 0
smoothSolver:  Solving for Uy, Initial residual = 3.22887e-08, Final residual = 3.22887e-08, No Iterations 0
DICPCG:  Solving for p, Initial residual = 1.16635e-06, Final residual = 1.88821e-07, No Iterations 1
time step continuity errors : sum local = 2.97751e-09, global = -7.43801e-19, cumulative = 1.3803e-17
DICPCG:  Solving for p, Initial residual = 5.2287e-07, Final residual = 5.2287e-07, No Iterations 0
time step continuity errors : sum local = 5.71534e-09, global = -6.39824e-19, cumulative = 1.31632e-17
ExecutionTime = 0.11 s  ClockTime = 1 s

Time = 0.95

Courant Number mean: 0.222159 max: 0.852134
smoothSolver:  Solving for Ux, Initial residual = 2.8388e-08, Final residual = 2.8388e-08, No Iterations 0
smoothSolver:  Solving for Uy, Initial residual = 7.30799e-08, Final residual = 7.30799e-08, No Iterations 0
DICPCG:  Solving for p, Initial residual = 9.29127e-07, Final residual = 9.29127e-07, No Iterations 0
time step continuity errors : sum local = 9.04463e-09, global = -1.07087e-18, cumulative = 1.20923e-17
DICPCG:  Solving for p, Initial residual = 1.14771e-06, Final residual = 1.9289e-07, No Iterations 1
time step continuity errors : sum local = 3.00664e-09, global = -6.94997e-19, cumulative = 1.13973e-17
ExecutionTime = 0.11 s  ClockTime = 1 s

Time = 0.955

Courant Number mean: 0.222159 max: 0.852134
smoothSolver:  Solving for Ux, Initial residual = 3.2211e-08, Final residual = 3.2211e-08, No Iterations 0
smoothSolver:  Solving for Uy, Initial residual = 8.22526e-08, Final residual = 8.22526e-08, No Iterations 0
DICPCG:  Solving for p, Initial residual = 5.46564e-07, Final residual = 5.46564e-07, No Iterations 0
time step continuity errors : sum local = 5.90325e-09, global = 9.98407e-19, cumulative = 1.23957e-17
DICPCG:  Solving for p, Initial residual = 7.88074e-07, Final residual = 7.88074e-07, No Iterations 0
time step continuity errors : sum local = 7.88214e-09, global = -1.16517e-18, cumulative = 1.12305e-17
ExecutionTime = 0.11 s  ClockTime = 1 s

Time = 0.96

Courant Number mean: 0.222159 max: 0.852134
smoothSolver:  Solving for Ux, Initial residual = 1.61999e-08, Final residual = 1.61999e-08, No Iterations 0
smoothSolver:  Solving for Uy, Initial residual = 4.16927e-08, Final residual = 4.16927e-08, No Iterations 0
DICPCG:  Solving for p, Initial residual = 1.0061e-06, Final residual = 1.86151e-07, No Iterations 1
time step continuity errors : sum local = 2.94596e-09, global = 2.98447e-19, cumulative = 1.1529e-17
DICPCG:  Solving for p, Initial residual = 4.28479e-07, Final residual = 4.28479e-07, No Iterations 0
time step continuity errors : sum local = 4.9318e-09, global = 1.08576e-18, cumulative = 1.26148e-17
ExecutionTime = 0.11 s  ClockTime = 1 s

Time = 0.965

Courant Number mean: 0.222159 max: 0.852134
smoothSolver:  Solving for Ux, Initial residual = 2.19146e-08, Final residual = 2.19146e-08, No Iterations 0
smoothSolver:  Solving for Uy, Initial residual = 5.59493e-08, Final residual = 5.59493e-08, No Iterations 0
DICPCG:  Solving for p, Initial residual = 7.40563e-07, Final residual = 7.40563e-07, No Iterations 0
time step continuity errors : sum local = 7.48908e-09, global = -6.23694e-20, cumulative = 1.25524e-17
DICPCG:  Solving for p, Initial residual = 9.06487e-07, Final residual = 9.06487e-07, No Iterations 0
time step continuity errors : sum local = 8.8487e-09, global = 3.76284e-19, cumulative = 1.29287e-17
ExecutionTime = 0.11 s  ClockTime = 1 s

Time = 0.97

Courant Number mean: 0.222159 max: 0.852134
smoothSolver:  Solving for Ux, Initial residual = 1.11912e-08, Final residual = 1.11912e-08, No Iterations 0
smoothSolver:  Solving for Uy, Initial residual = 2.876e-08, Final residual = 2.876e-08, No Iterations 0
DICPCG:  Solving for p, Initial residual = 1.05534e-06, Final residual = 1.91039e-07, No Iterations 1
time step continuity errors : sum local = 2.98125e-09, global = -4.2757e-19, cumulative = 1.25011e-17
DICPCG:  Solving for p, Initial residual = 4.87914e-07, Final residual = 4.87914e-07, No Iterations 0
time step continuity errors : sum local = 5.41308e-09, global = 1.59729e-19, cumulative = 1.26608e-17
ExecutionTime = 0.11 s  ClockTime = 1 s

Time = 0.975

Courant Number mean: 0.222159 max: 0.852134
smoothSolver:  Solving for Ux, Initial residual = 2.60402e-08, Final residual = 2.60402e-08, No Iterations 0
smoothSolver:  Solving for Uy, Initial residual = 6.64386e-08, Final residual = 6.64386e-08, No Iterations 0
DICPCG:  Solving for p, Initial residual = 8.56849e-07, Final residual = 8.56849e-07, No Iterations 0
time step continuity errors : sum local = 8.43585e-09, global = 9.27021e-19, cumulative = 1.35878e-17
DICPCG:  Solving for p, Initial residual = 1.05609e-06, Final residual = 1.86624e-07, No Iterations 1
time step continuity errors : sum local = 2.93967e-09, global = -2.46252e-19, cumulative = 1.33416e-17
ExecutionTime = 0.11 s  ClockTime = 1 s

Time = 0.98

Courant Number mean: 0.222159 max: 0.852134
smoothSolver:  Solving for Ux, Initial residual = 2.99786e-08, Final residual = 2.99786e-08, No Iterations 0
smoothSolver:  Solving for Uy, Initial residual = 7.6254e-08, Final residual = 7.6254e-08, No Iterations 0
DICPCG:  Solving for p, Initial residual = 5.12506e-07, Final residual = 5.12506e-07, No Iterations 0
time step continuity errors : sum local = 5.60997e-09, global = 5.34524e-19, cumulative = 1.38761e-17
DICPCG:  Solving for p, Initial residual = 7.36727e-07, Final residual = 7.36727e-07, No Iterations 0
time step continuity errors : sum local = 7.44734e-09, global = 1.01139e-18, cumulative = 1.48875e-17
ExecutionTime = 0.11 s  ClockTime = 1 s

Time = 0.985

Courant Number mean: 0.222159 max: 0.852134
smoothSolver:  Solving for Ux, Initial residual = 1.5095e-08, Final residual = 1.5095e-08, No Iterations 0
smoothSolver:  Solving for Uy, Initial residual = 3.85046e-08, Final residual = 3.85046e-08, No Iterations 0
DICPCG:  Solving for p, Initial residual = 9.37696e-07, Final residual = 9.37696e-07, No Iterations 0
time step continuity errors : sum local = 9.09413e-09, global = -6.91027e-19, cumulative = 1.41965e-17
DICPCG:  Solving for p, Initial residual = 1.05282e-06, Final residual = 1.90669e-07, No Iterations 1
time step continuity errors : sum local = 2.96788e-09, global = -2.97785e-19, cumulative = 1.38987e-17
ExecutionTime = 0.11 s  ClockTime = 1 s

Time = 0.99

Courant Number mean: 0.222159 max: 0.852134
smoothSolver:  Solving for Ux, Initial residual = 3.55728e-08, Final residual = 3.55728e-08, No Iterations 0
smoothSolver:  Solving for Uy, Initial residual = 9.02137e-08, Final residual = 9.02137e-08, No Iterations 0
DICPCG:  Solving for p, Initial residual = 5.88099e-07, Final residual = 5.88099e-07, No Iterations 0
time step continuity errors : sum local = 6.22317e-09, global = 5.62731e-19, cumulative = 1.44614e-17
DICPCG:  Solving for p, Initial residual = 8.56892e-07, Final residual = 8.56892e-07, No Iterations 0
time step continuity errors : sum local = 8.42578e-09, global = 7.07239e-19, cumulative = 1.51687e-17
ExecutionTime = 0.11 s  ClockTime = 1 s

Time = 0.995

Courant Number mean: 0.222159 max: 0.852134
smoothSolver:  Solving for Ux, Initial residual = 1.7998e-08, Final residual = 1.7998e-08, No Iterations 0
smoothSolver:  Solving for Uy, Initial residual = 4.58586e-08, Final residual = 4.58586e-08, No Iterations 0
DICPCG:  Solving for p, Initial residual = 1.09791e-06, Final residual = 1.86792e-07, No Iterations 1
time step continuity errors : sum local = 2.93054e-09, global = -9.06093e-19, cumulative = 1.42626e-17
DICPCG:  Solving for p, Initial residual = 4.52843e-07, Final residual = 4.52843e-07, No Iterations 0
time step continuity errors : sum local = 5.11092e-09, global = 5.79026e-19, cumulative = 1.48416e-17
ExecutionTime = 0.11 s  ClockTime = 1 s

Time = 1

Courant Number mean: 0.222159 max: 0.852134
smoothSolver:  Solving for Ux, Initial residual = 2.39894e-08, Final residual = 2.39894e-08, No Iterations 0
smoothSolver:  Solving for Uy, Initial residual = 6.06972e-08, Final residual = 6.06972e-08, No Iterations 0
DICPCG:  Solving for p, Initial residual = 7.92194e-07, Final residual = 7.92194e-07, No Iterations 0
time step continuity errors : sum local = 7.89171e-09, global = 2.10848e-19, cumulative = 1.50525e-17
DICPCG:  Solving for p, Initial residual = 9.7366e-07, Final residual = 9.7366e-07, No Iterations 0
time step continuity errors : sum local = 9.37871e-09, global = 7.05999e-19, cumulative = 1.57585e-17
ExecutionTime = 0.11 s  ClockTime = 1 s

Time = 1.005

Courant Number mean: 0.222159 max: 0.852134
smoothSolver:  Solving for Ux, Initial residual = 1.23186e-08, Final residual = 1.23186e-08, No Iterations 0
smoothSolver:  Solving for Uy, Initial residual = 3.14071e-08, Final residual = 3.14071e-08, No Iterations 0
DICPCG:  Solving for p, Initial residual = 1.13631e-06, Final residual = 1.91826e-07, No Iterations 1
time step continuity errors : sum local = 2.96691e-09, global = 6.86477e-19, cumulative = 1.64449e-17
DICPCG:  Solving for p, Initial residual = 5.15023e-07, Final residual = 5.15023e-07, No Iterations 0
time step continuity errors : sum local = 5.61432e-09, global = 3.3203e-19, cumulative = 1.6777e-17
ExecutionTime = 0.11 s  ClockTime = 1 s

Time = 1.01

Courant Number mean: 0.222159 max: 0.852134
smoothSolver:  Solving for Ux, Initial residual = 2.8263e-08, Final residual = 2.8263e-08, No Iterations 0
smoothSolver:  Solving for Uy, Initial residual = 7.15154e-08, Final residual = 7.15154e-08, No Iterations 0
DICPCG:  Solving for p, Initial residual = 9.14707e-07, Final residual = 9.14707e-07, No Iterations 0
time step continuity errors : sum local = 8.88906e-09, global = -2.72142e-19, cumulative = 1.65048e-17
DICPCG:  Solving for p, Initial residual = 1.13039e-06, Final residual = 1.86286e-07, No Iterations 1
time step continuity errors : sum local = 2.9159e-09, global = 6.78784e-19, cumulative = 1.71836e-17
ExecutionTime = 0.12 s  ClockTime = 1 s

Time = 1.015

Courant Number mean: 0.222159 max: 0.852134
smoothSolver:  Solving for Ux, Initial residual = 3.21116e-08, Final residual = 3.21116e-08, No Iterations 0
smoothSolver:  Solving for Uy, Initial residual = 8.08774e-08, Final residual = 8.08774e-08, No Iterations 0
DICPCG:  Solving for p, Initial residual = 5.35418e-07, Final residual = 5.35418e-07, No Iterations 0
time step continuity errors : sum local = 5.77694e-09, global = -1.58901e-19, cumulative = 1.70247e-17
DICPCG:  Solving for p, Initial residual = 7.73776e-07, Final residual = 7.73776e-07, No Iterations 0
time step continuity errors : sum local = 7.73022e-09, global = -1.08261e-18, cumulative = 1.59421e-17
ExecutionTime = 0.12 s  ClockTime = 1 s

Time = 1.02

Courant Number mean: 0.222159 max: 0.852134
smoothSolver:  Solving for Ux, Initial residual = 1.62526e-08, Final residual = 1.62526e-08, No Iterations 0
smoothSolver:  Solving for Uy, Initial residual = 4.10569e-08, Final residual = 4.10569e-08, No Iterations 0
DICPCG:  Solving for p, Initial residual = 9.89126e-07, Final residual = 9.89126e-07, No Iterations 0
time step continuity errors : sum local = 9.49491e-09, global = 5.64137e-20, cumulative = 1.59985e-17
DICPCG:  Solving for p, Initial residual = 1.1124e-06, Final residual = 1.90267e-07, No Iterations 1
time step continuity errors : sum local = 2.94367e-09, global = 8.14773e-20, cumulative = 1.608e-17
ExecutionTime = 0.12 s  ClockTime = 1 s

Time = 1.025

Courant Number mean: 0.222159 max: 0.852134
smoothSolver:  Solving for Ux, Initial residual = 3.77934e-08, Final residual = 3.77934e-08, No Iterations 0
smoothSolver:  Solving for Uy, Initial residual = 9.49682e-08, Final residual = 9.49682e-08, No Iterations 0
DICPCG:  Solving for p, Initial residual = 6.11448e-07, Final residual = 6.11448e-07, No Iterations 0
time step continuity errors : sum local = 6.39347e-09, global = -3.27398e-19, cumulative = 1.57526e-17
DICPCG:  Solving for p, Initial residual = 8.96164e-07, Final residual = 8.96164e-07, No Iterations 0
time step continuity errors : sum local = 8.7266e-09, global = 7.27919e-20, cumulative = 1.58254e-17
ExecutionTime = 0.12 s  ClockTime = 1 s

Time = 1.03

Courant Number mean: 0.222159 max: 0.852134
smoothSolver:  Solving for Ux, Initial residual = 1.92507e-08, Final residual = 1.92507e-08, No Iterations 0
smoothSolver:  Solving for Uy, Initial residual = 4.85293e-08, Final residual = 4.85293e-08, No Iterations 0
DICPCG:  Solving for p, Initial residual = 1.15105e-06, Final residual = 1.85897e-07, No Iterations 1
time step continuity errors : sum local = 2.90224e-09, global = -3.53372e-19, cumulative = 1.5472e-17
DICPCG:  Solving for p, Initial residual = 4.66395e-07, Final residual = 4.66395e-07, No Iterations 0
time step continuity errors : sum local = 5.2012e-09, global = 6.71671e-19, cumulative = 1.61437e-17
ExecutionTime = 0.12 s  ClockTime = 1 s

Time = 1.035

Courant Number mean: 0.222159 max: 0.852134
smoothSolver:  Solving for Ux, Initial residual = 2.52905e-08, Final residual = 2.52905e-08, No Iterations 0
smoothSolver:  Solving for Uy, Initial residual = 6.3406e-08, Final residual = 6.3406e-08, No Iterations 0
DICPCG:  Solving for p, Initial residual = 8.19798e-07, Final residual = 8.19798e-07, No Iterations 0
time step continuity errors : sum local = 8.09727e-09, global = -5.47594e-19, cumulative = 1.55961e-17
DICPCG:  Solving for p, Initial residual = 1.0111e-06, Final residual = 1.87221e-07, No Iterations 1
time step continuity errors : sum local = 2.90879e-09, global = 5.48421e-20, cumulative = 1.56509e-17
ExecutionTime = 0.12 s  ClockTime = 1 s

Time = 1.04

Courant Number mean: 0.222159 max: 0.852134
smoothSolver:  Solving for Ux, Initial residual = 2.93193e-08, Final residual = 2.93193e-08, No Iterations 0
smoothSolver:  Solving for Uy, Initial residual = 7.30371e-08, Final residual = 7.30371e-08, No Iterations 0
DICPCG:  Solving for p, Initial residual = 4.96496e-07, Final residual = 4.96496e-07, No Iterations 0
time step continuity errors : sum local = 5.44116e-09, global = 1.31605e-19, cumulative = 1.57825e-17
DICPCG:  Solving for p, Initial residual = 7.12326e-07, Final residual = 7.12326e-07, No Iterations 0
time step continuity errors : sum local = 7.20947e-09, global = 4.54453e-19, cumulative = 1.6237e-17
ExecutionTime = 0.12 s  ClockTime = 1 s

Time = 1.045

Courant Number mean: 0.222159 max: 0.852134
smoothSolver:  Solving for Ux, Initial residual = 1.47976e-08, Final residual = 1.47976e-08, No Iterations 0
smoothSolver:  Solving for Uy, Initial residual = 3.69577e-08, Final residual = 3.69577e-08, No Iterations 0
DICPCG:  Solving for p, Initial residual = 9.07203e-07, Final residual = 9.07203e-07, No Iterations 0
time step continuity errors : sum local = 8.80627e-09, global = -7.38672e-20, cumulative = 1.61631e-17
DICPCG:  Solving for p, Initial residual = 1.01822e-06, Final residual = 1.82649e-07, No Iterations 1
[...]
time step continuity errors : sum local = 7.5424e-09, global = -2.58908e-19, cumulative = 1.57573e-17
DICPCG:  Solving for p, Initial residual = 9.53757e-07, Final residual = 9.53757e-07, No Iterations 0
time step continuity errors : sum local = 8.46829e-09, global = -1.77513e-19, cumulative = 1.55798e-17
ExecutionTime = 0.45 s  ClockTime = 2 s

Time = 2.87

Courant Number mean: 0.222159 max: 0.852134
smoothSolver:  Solving for Ux, Initial residual = 8.25161e-09, Final residual = 8.25161e-09, No Iterations 0
smoothSolver:  Solving for Uy, Initial residual = 1.98094e-08, Final residual = 1.98094e-08, No Iterations 0
DICPCG:  Solving for p, Initial residual = 1.05525e-06, Final residual = 1.06224e-07, No Iterations 1
time step continuity errors : sum local = 1.52036e-09, global = -7.71594e-19, cumulative = 1.48082e-17
DICPCG:  Solving for p, Initial residual = 4.72574e-07, Final residual = 4.72574e-07, No Iterations 0
time step continuity errors : sum local = 4.5235e-09, global = -7.18075e-19, cumulative = 1.40901e-17
ExecutionTime = 0.45 s  ClockTime = 2 s

Time = 2.875

Courant Number mean: 0.222159 max: 0.852134
smoothSolver:  Solving for Ux, Initial residual = 3.00491e-08, Final residual = 3.00491e-08, No Iterations 0
smoothSolver:  Solving for Uy, Initial residual = 7.20054e-08, Final residual = 7.20054e-08, No Iterations 0
DICPCG:  Solving for p, Initial residual = 8.75004e-07, Final residual = 8.75004e-07, No Iterations 0
time step continuity errors : sum local = 7.82207e-09, global = -7.46613e-19, cumulative = 1.33435e-17
DICPCG:  Solving for p, Initial residual = 1.101e-06, Final residual = 1.10002e-07, No Iterations 1
time step continuity errors : sum local = 1.54955e-09, global = -4.12019e-19, cumulative = 1.29315e-17
ExecutionTime = 0.45 s  ClockTime = 2 s

Time = 2.88

Courant Number mean: 0.222159 max: 0.852134
smoothSolver:  Solving for Ux, Initial residual = 3.21407e-08, Final residual = 3.21407e-08, No Iterations 0
smoothSolver:  Solving for Uy, Initial residual = 7.69501e-08, Final residual = 7.69501e-08, No Iterations 0
DICPCG:  Solving for p, Initial residual = 4.76268e-07, Final residual = 4.76268e-07, No Iterations 0
time step continuity errors : sum local = 4.55034e-09, global = 8.38927e-19, cumulative = 1.37704e-17
DICPCG:  Solving for p, Initial residual = 7.12984e-07, Final residual = 7.12984e-07, No Iterations 0
time step continuity errors : sum local = 6.4903e-09, global = 8.04847e-20, cumulative = 1.38509e-17
ExecutionTime = 0.45 s  ClockTime = 2 s

Time = 2.885

Courant Number mean: 0.222159 max: 0.852134
smoothSolver:  Solving for Ux, Initial residual = 1.69132e-08, Final residual = 1.69132e-08, No Iterations 0
smoothSolver:  Solving for Uy, Initial residual = 4.05141e-08, Final residual = 4.05141e-08, No Iterations 0
DICPCG:  Solving for p, Initial residual = 9.27664e-07, Final residual = 9.27664e-07, No Iterations 0
time step continuity errors : sum local = 8.24977e-09, global = -7.81107e-19, cumulative = 1.30698e-17
DICPCG:  Solving for p, Initial residual = 1.05402e-06, Final residual = 1.05919e-07, No Iterations 1
time step continuity errors : sum local = 1.51324e-09, global = 3.58004e-19, cumulative = 1.34278e-17
ExecutionTime = 0.45 s  ClockTime = 2 s

Time = 2.89

Courant Number mean: 0.222159 max: 0.852134
smoothSolver:  Solving for Ux, Initial residual = 3.68666e-08, Final residual = 3.68666e-08, No Iterations 0
smoothSolver:  Solving for Uy, Initial residual = 8.84177e-08, Final residual = 8.84177e-08, No Iterations 0
DICPCG:  Solving for p, Initial residual = 5.3601e-07, Final residual = 5.3601e-07, No Iterations 0
time step continuity errors : sum local = 5.03876e-09, global = 1.00072e-18, cumulative = 1.44285e-17
DICPCG:  Solving for p, Initial residual = 8.09843e-07, Final residual = 8.09843e-07, No Iterations 0
time step continuity errors : sum local = 7.28321e-09, global = 3.71983e-19, cumulative = 1.48005e-17
ExecutionTime = 0.45 s  ClockTime = 2 s

Time = 2.895

Courant Number mean: 0.222159 max: 0.852134
smoothSolver:  Solving for Ux, Initial residual = 1.95114e-08, Final residual = 1.95114e-08, No Iterations 0
smoothSolver:  Solving for Uy, Initial residual = 4.6859e-08, Final residual = 4.6859e-08, No Iterations 0
DICPCG:  Solving for p, Initial residual = 1.0576e-06, Final residual = 1.07546e-07, No Iterations 1
time step continuity errors : sum local = 1.52477e-09, global = 8.00132e-19, cumulative = 1.56006e-17
DICPCG:  Solving for p, Initial residual = 3.91842e-07, Final residual = 3.91842e-07, No Iterations 0
time step continuity errors : sum local = 3.85413e-09, global = -1.35658e-19, cumulative = 1.5465e-17
ExecutionTime = 0.45 s  ClockTime = 2 s

Time = 2.9

Courant Number mean: 0.222159 max: 0.852134
smoothSolver:  Solving for Ux, Initial residual = 2.40764e-08, Final residual = 2.40764e-08, No Iterations 0
smoothSolver:  Solving for Uy, Initial residual = 5.79052e-08, Final residual = 5.79052e-08, No Iterations 0
DICPCG:  Solving for p, Initial residual = 7.19184e-07, Final residual = 7.19184e-07, No Iterations 0
time step continuity errors : sum local = 6.5366e-09, global = -2.10104e-19, cumulative = 1.52549e-17
DICPCG:  Solving for p, Initial residual = 8.98676e-07, Final residual = 8.98676e-07, No Iterations 0
time step continuity errors : sum local = 8.00772e-09, global = -6.46028e-20, cumulative = 1.51903e-17
ExecutionTime = 0.45 s  ClockTime = 2 s

Time = 2.905

Courant Number mean: 0.222159 max: 0.852134
smoothSolver:  Solving for Ux, Initial residual = 1.28804e-08, Final residual = 1.28804e-08, No Iterations 0
smoothSolver:  Solving for Uy, Initial residual = 3.09292e-08, Final residual = 3.09292e-08, No Iterations 0
DICPCG:  Solving for p, Initial residual = 1.06152e-06, Final residual = 1.05843e-07, No Iterations 1
time step continuity errors : sum local = 1.50803e-09, global = -1.31414e-18, cumulative = 1.38761e-17
DICPCG:  Solving for p, Initial residual = 4.40312e-07, Final residual = 4.40312e-07, No Iterations 0
time step continuity errors : sum local = 4.24972e-09, global = 7.97319e-19, cumulative = 1.46734e-17
ExecutionTime = 0.45 s  ClockTime = 2 s

Time = 2.91

Courant Number mean: 0.222159 max: 0.852134
smoothSolver:  Solving for Ux, Initial residual = 2.76652e-08, Final residual = 2.76652e-08, No Iterations 0
smoothSolver:  Solving for Uy, Initial residual = 6.67695e-08, Final residual = 6.67695e-08, No Iterations 0
DICPCG:  Solving for p, Initial residual = 8.15533e-07, Final residual = 8.15533e-07, No Iterations 0
time step continuity errors : sum local = 7.32517e-09, global = 6.251e-19, cumulative = 1.52985e-17
DICPCG:  Solving for p, Initial residual = 1.0236e-06, Final residual = 1.05563e-07, No Iterations 1
time step continuity errors : sum local = 1.50388e-09, global = 5.32125e-19, cumulative = 1.58307e-17
ExecutionTime = 0.46 s  ClockTime = 2 s

Time = 2.915

Courant Number mean: 0.222159 max: 0.852134
smoothSolver:  Solving for Ux, Initial residual = 2.98322e-08, Final residual = 2.98322e-08, No Iterations 0
smoothSolver:  Solving for Uy, Initial residual = 7.16332e-08, Final residual = 7.16332e-08, No Iterations 0
DICPCG:  Solving for p, Initial residual = 4.47235e-07, Final residual = 4.47235e-07, No Iterations 0
time step continuity errors : sum local = 4.3033e-09, global = 6.14761e-19, cumulative = 1.64454e-17
DICPCG:  Solving for p, Initial residual = 6.67219e-07, Final residual = 6.67219e-07, No Iterations 0
time step continuity errors : sum local = 6.10614e-09, global = -3.30955e-19, cumulative = 1.61145e-17
ExecutionTime = 0.46 s  ClockTime = 2 s

Time = 2.92

Courant Number mean: 0.222159 max: 0.852134
smoothSolver:  Solving for Ux, Initial residual = 1.55886e-08, Final residual = 1.55886e-08, No Iterations 0
smoothSolver:  Solving for Uy, Initial residual = 3.76188e-08, Final residual = 3.76188e-08, No Iterations 0
DICPCG:  Solving for p, Initial residual = 8.66178e-07, Final residual = 8.66178e-07, No Iterations 0
time step continuity errors : sum local = 7.73674e-09, global = 9.78886e-19, cumulative = 1.70934e-17
DICPCG:  Solving for p, Initial residual = 9.82869e-07, Final residual = 9.82869e-07, No Iterations 0
time step continuity errors : sum local = 8.69319e-09, global = -5.557e-19, cumulative = 1.65377e-17
ExecutionTime = 0.46 s  ClockTime = 2 s

Time = 2.925

Courant Number mean: 0.222159 max: 0.852134
smoothSolver:  Solving for Ux, Initial residual = 8.53587e-09, Final residual = 8.53587e-09, No Iterations 0
smoothSolver:  Solving for Uy, Initial residual = 2.06121e-08, Final residual = 2.06121e-08, No Iterations 0
DICPCG:  Solving for p, Initial residual = 1.08726e-06, Final residual = 1.06447e-07, No Iterations 1
time step continuity errors : sum local = 1.50835e-09, global = -5.5115e-19, cumulative = 1.59865e-17
DICPCG:  Solving for p, Initial residual = 4.86096e-07, Final residual = 4.86096e-07, No Iterations 0
time step continuity errors : sum local = 4.62035e-09, global = -1.27014e-18, cumulative = 1.47164e-17
ExecutionTime = 0.46 s  ClockTime = 2 s

Time = 2.93

Courant Number mean: 0.222159 max: 0.852134
smoothSolver:  Solving for Ux, Initial residual = 3.09433e-08, Final residual = 3.09433e-08, No Iterations 0
smoothSolver:  Solving for Uy, Initial residual = 7.50089e-08, Final residual = 7.50089e-08, No Iterations 0
DICPCG:  Solving for p, Initial residual = 9.05288e-07, Final residual = 9.05288e-07, No Iterations 0
time step continuity errors : sum local = 8.05622e-09, global = 5.39487e-19, cumulative = 1.52559e-17
DICPCG:  Solving for p, Initial residual = 1.13907e-06, Final residual = 1.10227e-07, No Iterations 1
time step continuity errors : sum local = 1.53746e-09, global = 3.2533e-19, cumulative = 1.55812e-17
ExecutionTime = 0.46 s  ClockTime = 2 s

Time = 2.935

Courant Number mean: 0.222159 max: 0.852134
smoothSolver:  Solving for Ux, Initial residual = 3.34634e-08, Final residual = 3.34634e-08, No Iterations 0
smoothSolver:  Solving for Uy, Initial residual = 8.0675e-08, Final residual = 8.0675e-08, No Iterations 0
DICPCG:  Solving for p, Initial residual = 4.98041e-07, Final residual = 4.98041e-07, No Iterations 0
time step continuity errors : sum local = 4.71517e-09, global = 4.55363e-19, cumulative = 1.60366e-17
DICPCG:  Solving for p, Initial residual = 7.46618e-07, Final residual = 7.46618e-07, No Iterations 0
time step continuity errors : sum local = 6.75241e-09, global = -2.94311e-19, cumulative = 1.57422e-17
ExecutionTime = 0.46 s  ClockTime = 2 s

Time = 2.94

Courant Number mean: 0.222159 max: 0.852134
smoothSolver:  Solving for Ux, Initial residual = 1.75987e-08, Final residual = 1.75987e-08, No Iterations 0
smoothSolver:  Solving for Uy, Initial residual = 4.25029e-08, Final residual = 4.25029e-08, No Iterations 0
DICPCG:  Solving for p, Initial residual = 9.70736e-07, Final residual = 9.70736e-07, No Iterations 0
time step continuity errors : sum local = 8.58926e-09, global = 9.64575e-19, cumulative = 1.67068e-17
DICPCG:  Solving for p, Initial residual = 1.10225e-06, Final residual = 1.07165e-07, No Iterations 1
time step continuity errors : sum local = 1.50973e-09, global = -1.82559e-19, cumulative = 1.65243e-17
ExecutionTime = 0.46 s  ClockTime = 2 s

Time = 2.945

Courant Number mean: 0.222159 max: 0.852134
smoothSolver:  Solving for Ux, Initial residual = 3.86007e-08, Final residual = 3.86007e-08, No Iterations 0
smoothSolver:  Solving for Uy, Initial residual = 9.34672e-08, Final residual = 9.34672e-08, No Iterations 0
DICPCG:  Solving for p, Initial residual = 5.61012e-07, Final residual = 5.61012e-07, No Iterations 0
time step continuity errors : sum local = 5.2297e-09, global = 1.2507e-19, cumulative = 1.66493e-17
DICPCG:  Solving for p, Initial residual = 8.50694e-07, Final residual = 8.50694e-07, No Iterations 0
time step continuity errors : sum local = 7.60406e-09, global = -1.96704e-19, cumulative = 1.64526e-17
ExecutionTime = 0.46 s  ClockTime = 2 s

Time = 2.95

Courant Number mean: 0.222159 max: 0.852134
smoothSolver:  Solving for Ux, Initial residual = 2.04777e-08, Final residual = 2.04777e-08, No Iterations 0
smoothSolver:  Solving for Uy, Initial residual = 4.95745e-08, Final residual = 4.95745e-08, No Iterations 0
DICPCG:  Solving for p, Initial residual = 1.11146e-06, Final residual = 1.08776e-07, No Iterations 1
time step continuity errors : sum local = 1.521e-09, global = 5.39322e-19, cumulative = 1.69919e-17
DICPCG:  Solving for p, Initial residual = 4.14344e-07, Final residual = 4.14344e-07, No Iterations 0
time step continuity errors : sum local = 4.02497e-09, global = -3.32527e-20, cumulative = 1.69587e-17
ExecutionTime = 0.46 s  ClockTime = 2 s

Time = 2.955

Courant Number mean: 0.222159 max: 0.852134
smoothSolver:  Solving for Ux, Initial residual = 2.54196e-08, Final residual = 2.54196e-08, No Iterations 0
smoothSolver:  Solving for Uy, Initial residual = 6.16071e-08, Final residual = 6.16071e-08, No Iterations 0
DICPCG:  Solving for p, Initial residual = 7.61185e-07, Final residual = 7.61185e-07, No Iterations 0
time step continuity errors : sum local = 6.86739e-09, global = 2.93649e-20, cumulative = 1.69881e-17
DICPCG:  Solving for p, Initial residual = 9.52608e-07, Final residual = 9.52608e-07, No Iterations 0
time step continuity errors : sum local = 8.43632e-09, global = -2.0299e-19, cumulative = 1.67851e-17
ExecutionTime = 0.46 s  ClockTime = 2 s

Time = 2.96

Courant Number mean: 0.222159 max: 0.852134
smoothSolver:  Solving for Ux, Initial residual = 1.37216e-08, Final residual = 1.37216e-08, No Iterations 0
smoothSolver:  Solving for Uy, Initial residual = 3.33644e-08, Final residual = 3.33644e-08, No Iterations 0
DICPCG:  Solving for p, Initial residual = 1.12521e-06, Final residual = 1.08205e-07, No Iterations 1
time step continuity errors : sum local = 1.51376e-09, global = 1.12042e-18, cumulative = 1.79055e-17
DICPCG:  Solving for p, Initial residual = 4.67469e-07, Final residual = 4.67469e-07, No Iterations 0
time step continuity errors : sum local = 4.45849e-09, global = 6.92516e-19, cumulative = 1.8598e-17
ExecutionTime = 0.46 s  ClockTime = 2 s

Time = 2.965

Courant Number mean: 0.222159 max: 0.852134
smoothSolver:  Solving for Ux, Initial residual = 2.94674e-08, Final residual = 2.94674e-08, No Iterations 0
smoothSolver:  Solving for Uy, Initial residual = 7.15223e-08, Final residual = 7.15223e-08, No Iterations 0
DICPCG:  Solving for p, Initial residual = 8.68572e-07, Final residual = 8.68572e-07, No Iterations 0
time step continuity errors : sum local = 7.74601e-09, global = -5.67115e-19, cumulative = 1.80309e-17
DICPCG:  Solving for p, Initial residual = 1.09086e-06, Final residual = 1.07624e-07, No Iterations 1
time step continuity errors : sum local = 1.50702e-09, global = 1.79995e-19, cumulative = 1.82109e-17
ExecutionTime = 0.46 s  ClockTime = 2 s

Time = 2.97

Courant Number mean: 0.222159 max: 0.852134
smoothSolver:  Solving for Ux, Initial residual = 3.18486e-08, Final residual = 3.18486e-08, No Iterations 0
smoothSolver:  Solving for Uy, Initial residual = 7.71154e-08, Final residual = 7.71154e-08, No Iterations 0
DICPCG:  Solving for p, Initial residual = 4.75861e-07, Final residual = 4.75861e-07, No Iterations 0
time step continuity errors : sum local = 4.52449e-09, global = -1.66263e-19, cumulative = 1.80446e-17
DICPCG:  Solving for p, Initial residual = 7.12926e-07, Final residual = 7.12926e-07, No Iterations 0
time step continuity errors : sum local = 6.46739e-09, global = 4.36834e-19, cumulative = 1.84814e-17
ExecutionTime = 0.46 s  ClockTime = 2 s

Time = 2.975

Courant Number mean: 0.222159 max: 0.852134
smoothSolver:  Solving for Ux, Initial residual = 1.68246e-08, Final residual = 1.68246e-08, No Iterations 0
smoothSolver:  Solving for Uy, Initial residual = 4.0799e-08, Final residual = 4.0799e-08, No Iterations 0
DICPCG:  Solving for p, Initial residual = 9.27695e-07, Final residual = 9.27695e-07, No Iterations 0
time step continuity errors : sum local = 8.22761e-09, global = -2.43274e-19, cumulative = 1.82382e-17
DICPCG:  Solving for p, Initial residual = 1.0535e-06, Final residual = 1.05032e-07, No Iterations 1
time step continuity errors : sum local = 1.48328e-09, global = -5.35186e-20, cumulative = 1.81847e-17
ExecutionTime = 0.46 s  ClockTime = 2 s

Time = 2.98

Courant Number mean: 0.222159 max: 0.852134
smoothSolver:  Solving for Ux, Initial residual = 3.68063e-08, Final residual = 3.68063e-08, No Iterations 0
smoothSolver:  Solving for Uy, Initial residual = 8.9136e-08, Final residual = 8.9136e-08, No Iterations 0
DICPCG:  Solving for p, Initial residual = 5.36576e-07, Final residual = 5.36576e-07, No Iterations 0
time step continuity errors : sum local = 5.02021e-09, global = -7.5108e-20, cumulative = 1.81095e-17
DICPCG:  Solving for p, Initial residual = 8.12914e-07, Final residual = 8.12914e-07, No Iterations 0
time step continuity errors : sum local = 7.28516e-09, global = -1.5714e-18, cumulative = 1.65382e-17
ExecutionTime = 0.46 s  ClockTime = 2 s

Time = 2.985

Courant Number mean: 0.222159 max: 0.852134
smoothSolver:  Solving for Ux, Initial residual = 1.96263e-08, Final residual = 1.96263e-08, No Iterations 0
smoothSolver:  Solving for Uy, Initial residual = 4.77463e-08, Final residual = 4.77463e-08, No Iterations 0
DICPCG:  Solving for p, Initial residual = 1.06252e-06, Final residual = 1.0585e-07, No Iterations 1
time step continuity errors : sum local = 1.48793e-09, global = -1.24929e-18, cumulative = 1.52889e-17
DICPCG:  Solving for p, Initial residual = 3.95359e-07, Final residual = 3.95359e-07, No Iterations 0
time step continuity errors : sum local = 3.86045e-09, global = 7.65142e-19, cumulative = 1.6054e-17
ExecutionTime = 0.46 s  ClockTime = 2 s

Time = 2.99

Courant Number mean: 0.222159 max: 0.852134
smoothSolver:  Solving for Ux, Initial residual = 2.43633e-08, Final residual = 2.43633e-08, No Iterations 0
smoothSolver:  Solving for Uy, Initial residual = 5.88758e-08, Final residual = 5.88758e-08, No Iterations 0
DICPCG:  Solving for p, Initial residual = 7.27699e-07, Final residual = 7.27699e-07, No Iterations 0
time step continuity errors : sum local = 6.58409e-09, global = -1.21265e-19, cumulative = 1.59327e-17
DICPCG:  Solving for p, Initial residual = 9.10415e-07, Final residual = 9.10415e-07, No Iterations 0
time step continuity errors : sum local = 8.08163e-09, global = 1.27055e-19, cumulative = 1.60598e-17
ExecutionTime = 0.47 s  ClockTime = 2 s

Time = 2.995

Courant Number mean: 0.222159 max: 0.852134
smoothSolver:  Solving for Ux, Initial residual = 1.32106e-08, Final residual = 1.32106e-08, No Iterations 0
smoothSolver:  Solving for Uy, Initial residual = 3.22638e-08, Final residual = 3.22638e-08, No Iterations 0
DICPCG:  Solving for p, Initial residual = 1.07586e-06, Final residual = 1.05534e-07, No Iterations 1
time step continuity errors : sum local = 1.48293e-09, global = 9.04853e-19, cumulative = 1.69646e-17
DICPCG:  Solving for p, Initial residual = 4.47467e-07, Final residual = 4.47467e-07, No Iterations 0
time step continuity errors : sum local = 4.28543e-09, global = -6.11948e-19, cumulative = 1.63527e-17
ExecutionTime = 0.47 s  ClockTime = 2 s

Time = 3

Courant Number mean: 0.222159 max: 0.852134
smoothSolver:  Solving for Ux, Initial residual = 2.83653e-08, Final residual = 2.83653e-08, No Iterations 0
smoothSolver:  Solving for Uy, Initial residual = 6.87108e-08, Final residual = 6.87108e-08, No Iterations 0
DICPCG:  Solving for p, Initial residual = 8.31282e-07, Final residual = 8.31282e-07, No Iterations 0
time step continuity errors : sum local = 7.43116e-09, global = -1.74618e-19, cumulative = 1.61781e-17
DICPCG:  Solving for p, Initial residual = 1.04422e-06, Final residual = 1.04493e-07, No Iterations 1
time step continuity errors : sum local = 1.47233e-09, global = -5.48421e-20, cumulative = 1.61232e-17
ExecutionTime = 0.47 s  ClockTime = 2 s

End

