/*---------------------------------------------------------------------------*\
  =========                 |
  \\      /  F ield         | OpenFOAM: The Open Source CFD Toolbox
   \\    /   O peration     | Website:  https://openfoam.org
    \\  /    A nd           | Version:  7
     \\/     M anipulation  |
\*---------------------------------------------------------------------------*/
Build  : 7
Exec   : icoFoam
Date   : Feb 11 2025
Time   : 00:25:57
Host   : "c209-001.frontera.tacc.utexas.edu"
PID    : 199835
I/O    : uncollated
Case   : /work2/10249/ctshep3141/frontera/coe347/COE-347-Open-Foam/of-project-1/extracred/Re-100-AR-2
nProcs : 1
sigFpe : Enabling floating point exception trapping (FOAM_SIGFPE).
fileModificationChecking : Monitoring run-time modified files using timeStampMaster (fileModificationSkew 10)
allowSystemOperations : Allowing user-supplied system call operations

// * * * * * * * * * * * * * * * * * * * * * * * * * * * * * * * * * * * * * //
Create time

Create mesh for time = 0

Reading transportProperties

Reading field p

Reading field U

Reading/calculating face flux field phi


Starting time loop

Time = 0.000625

Courant Number mean: 0 max: 0
smoothSolver:  Solving for Ux, Initial residual = 1, Final residual = 3.52327e-06, No Iterations 9
smoothSolver:  Solving for Uy, Initial residual = 0, Final residual = 0, No Iterations 0
DICPCG:  Solving for p, Initial residual = 1, Final residual = 0.0424338, No Iterations 176
time step continuity errors : sum local = 1.77326e-06, global = -1.13324e-20, cumulative = -1.13324e-20
DICPCG:  Solving for p, Initial residual = 0.29488, Final residual = 9.49892e-07, No Iterations 249
time step continuity errors : sum local = 1.05111e-10, global = 4.21766e-21, cumulative = -7.11472e-21
ExecutionTime = 0.28 s  ClockTime = 1 s

Time = 0.00125

Courant Number mean: 0.00936391 max: 0.287693
smoothSolver:  Solving for Ux, Initial residual = 0.246862, Final residual = 3.17878e-06, No Iterations 9
smoothSolver:  Solving for Uy, Initial residual = 0.322239, Final residual = 7.08524e-06, No Iterations 9
DICPCG:  Solving for p, Initial residual = 0.226173, Final residual = 0.0103389, No Iterations 173
time step continuity errors : sum local = 8.72764e-07, global = 8.13569e-22, cumulative = -6.30115e-21
DICPCG:  Solving for p, Initial residual = 0.158329, Final residual = 9.44442e-07, No Iterations 241
time step continuity errors : sum local = 7.71985e-11, global = 1.10559e-20, cumulative = 4.7548e-21
ExecutionTime = 0.43 s  ClockTime = 1 s

Time = 0.001875

Courant Number mean: 0.0152646 max: 0.406714
smoothSolver:  Solving for Ux, Initial residual = 0.118376, Final residual = 5.57593e-06, No Iterations 8
smoothSolver:  Solving for Uy, Initial residual = 0.155917, Final residual = 3.51602e-06, No Iterations 9
DICPCG:  Solving for p, Initial residual = 0.10528, Final residual = 0.00501912, No Iterations 172
time step continuity errors : sum local = 4.23426e-07, global = 4.35401e-21, cumulative = 9.10881e-21
DICPCG:  Solving for p, Initial residual = 0.0730482, Final residual = 7.73116e-07, No Iterations 237
time step continuity errors : sum local = 6.30169e-11, global = 1.12287e-20, cumulative = 2.03375e-20
ExecutionTime = 0.58 s  ClockTime = 1 s

Time = 0.0025

Courant Number mean: 0.0195299 max: 0.46199
smoothSolver:  Solving for Ux, Initial residual = 0.0736438, Final residual = 3.77071e-06, No Iterations 8
smoothSolver:  Solving for Uy, Initial residual = 0.0962017, Final residual = 7.20558e-06, No Iterations 8
DICPCG:  Solving for p, Initial residual = 0.0621019, Final residual = 0.00274079, No Iterations 171
time step continuity errors : sum local = 2.35411e-07, global = 2.80028e-20, cumulative = 4.83403e-20
DICPCG:  Solving for p, Initial residual = 0.0409152, Final residual = 9.6795e-07, No Iterations 234
time step continuity errors : sum local = 8.20974e-11, global = -5.95595e-20, cumulative = -1.12192e-20
ExecutionTime = 0.73 s  ClockTime = 1 s

Time = 0.003125

Courant Number mean: 0.0229106 max: 0.491455
smoothSolver:  Solving for Ux, Initial residual = 0.0529807, Final residual = 9.62628e-06, No Iterations 7
smoothSolver:  Solving for Uy, Initial residual = 0.0682399, Final residual = 5.1759e-06, No Iterations 8
DICPCG:  Solving for p, Initial residual = 0.0412353, Final residual = 0.00202018, No Iterations 169
time step continuity errors : sum local = 1.76945e-07, global = 4.27507e-21, cumulative = -6.94411e-21
DICPCG:  Solving for p, Initial residual = 0.0267205, Final residual = 8.1898e-07, No Iterations 232
time step continuity errors : sum local = 7.12443e-11, global = 2.09315e-20, cumulative = 1.39874e-20
ExecutionTime = 0.88 s  ClockTime = 1 s

Time = 0.00375

Courant Number mean: 0.0257799 max: 0.509338
smoothSolver:  Solving for Ux, Initial residual = 0.0414596, Final residual = 7.88416e-06, No Iterations 7
smoothSolver:  Solving for Uy, Initial residual = 0.0527015, Final residual = 4.03405e-06, No Iterations 8
DICPCG:  Solving for p, Initial residual = 0.0312859, Final residual = 0.00154673, No Iterations 167
time step continuity errors : sum local = 1.3765e-07, global = -1.91756e-20, cumulative = -5.18816e-21
DICPCG:  Solving for p, Initial residual = 0.0201161, Final residual = 8.98814e-07, No Iterations 228
time step continuity errors : sum local = 7.96327e-11, global = 1.97328e-20, cumulative = 1.45447e-20
ExecutionTime = 1.03 s  ClockTime = 2 s

Time = 0.004375

Courant Number mean: 0.0282872 max: 0.521403
smoothSolver:  Solving for Ux, Initial residual = 0.0341729, Final residual = 6.71638e-06, No Iterations 7
smoothSolver:  Solving for Uy, Initial residual = 0.0429255, Final residual = 3.30816e-06, No Iterations 8
DICPCG:  Solving for p, Initial residual = 0.024815, Final residual = 0.00120406, No Iterations 166
time step continuity errors : sum local = 1.08356e-07, global = 1.25929e-20, cumulative = 2.71376e-20
DICPCG:  Solving for p, Initial residual = 0.0163145, Final residual = 9.0218e-07, No Iterations 226
time step continuity errors : sum local = 8.0901e-11, global = 1.00105e-20, cumulative = 3.71481e-20
ExecutionTime = 1.17 s  ClockTime = 2 s

Time = 0.005

Courant Number mean: 0.0305375 max: 0.530204
smoothSolver:  Solving for Ux, Initial residual = 0.029117, Final residual = 5.87623e-06, No Iterations 7
smoothSolver:  Solving for Uy, Initial residual = 0.036216, Final residual = 9.1547e-06, No Iterations 7
DICPCG:  Solving for p, Initial residual = 0.0208512, Final residual = 0.00102912, No Iterations 164
time step continuity errors : sum local = 9.33752e-08, global = 1.86374e-20, cumulative = 5.57855e-20
DICPCG:  Solving for p, Initial residual = 0.0134834, Final residual = 8.5475e-07, No Iterations 225
time step continuity errors : sum local = 7.73056e-11, global = -1.873e-21, cumulative = 5.39125e-20
ExecutionTime = 1.31 s  ClockTime = 2 s

Time = 0.005625

Courant Number mean: 0.032599 max: 0.536991
smoothSolver:  Solving for Ux, Initial residual = 0.0254013, Final residual = 5.23389e-06, No Iterations 7
smoothSolver:  Solving for Uy, Initial residual = 0.0313213, Final residual = 7.948e-06, No Iterations 7
DICPCG:  Solving for p, Initial residual = 0.0180575, Final residual = 0.000845839, No Iterations 164
time step continuity errors : sum local = 7.72578e-08, global = -4.87087e-20, cumulative = 5.2038e-21
DICPCG:  Solving for p, Initial residual = 0.011957, Final residual = 9.54526e-07, No Iterations 223
time step continuity errors : sum local = 8.69073e-11, global = -3.25893e-20, cumulative = -2.73855e-20
ExecutionTime = 1.46 s  ClockTime = 2 s

Time = 0.00625

Courant Number mean: 0.0344937 max: 0.542437
smoothSolver:  Solving for Ux, Initial residual = 0.0225346, Final residual = 4.72417e-06, No Iterations 7
smoothSolver:  Solving for Uy, Initial residual = 0.0275889, Final residual = 7.0228e-06, No Iterations 7
DICPCG:  Solving for p, Initial residual = 0.0158255, Final residual = 0.000732926, No Iterations 164
time step continuity errors : sum local = 6.73301e-08, global = -7.91076e-21, cumulative = -3.52963e-20
DICPCG:  Solving for p, Initial residual = 0.0105153, Final residual = 8.10737e-07, No Iterations 223
time step continuity errors : sum local = 7.42675e-11, global = -6.03399e-20, cumulative = -9.56362e-20
ExecutionTime = 1.6 s  ClockTime = 2 s

Time = 0.006875

Courant Number mean: 0.0362589 max: 0.546936
smoothSolver:  Solving for Ux, Initial residual = 0.0202684, Final residual = 4.31082e-06, No Iterations 7
smoothSolver:  Solving for Uy, Initial residual = 0.0246469, Final residual = 6.29019e-06, No Iterations 7
DICPCG:  Solving for p, Initial residual = 0.0141302, Final residual = 0.000648424, No Iterations 164
time step continuity errors : sum local = 5.98692e-08, global = -3.93763e-20, cumulative = -1.35012e-19
DICPCG:  Solving for p, Initial residual = 0.00943265, Final residual = 8.8782e-07, No Iterations 222
time step continuity errors : sum local = 8.17137e-11, global = 1.97934e-20, cumulative = -1.15219e-19
ExecutionTime = 1.74 s  ClockTime = 2 s

Time = 0.0075

Courant Number mean: 0.037923 max: 0.550736
smoothSolver:  Solving for Ux, Initial residual = 0.0184122, Final residual = 3.96539e-06, No Iterations 7
smoothSolver:  Solving for Uy, Initial residual = 0.0222674, Final residual = 5.69531e-06, No Iterations 7
DICPCG:  Solving for p, Initial residual = 0.012779, Final residual = 0.00058526, No Iterations 164
time step continuity errors : sum local = 5.42709e-08, global = 2.58666e-21, cumulative = -1.12632e-19
DICPCG:  Solving for p, Initial residual = 0.00855333, Final residual = 7.82869e-07, No Iterations 222
time step continuity errors : sum local = 7.23706e-11, global = -6.42274e-21, cumulative = -1.19055e-19
ExecutionTime = 1.88 s  ClockTime = 2 s

Time = 0.008125

Courant Number mean: 0.0394899 max: 0.554003
smoothSolver:  Solving for Ux, Initial residual = 0.0168758, Final residual = 3.67277e-06, No Iterations 7
smoothSolver:  Solving for Uy, Initial residual = 0.0203026, Final residual = 5.2025e-06, No Iterations 7
DICPCG:  Solving for p, Initial residual = 0.0116705, Final residual = 0.000535366, No Iterations 164
time step continuity errors : sum local = 4.98291e-08, global = 1.84965e-20, cumulative = -1.00559e-19
DICPCG:  Solving for p, Initial residual = 0.00784912, Final residual = 9.09983e-07, No Iterations 221
time step continuity errors : sum local = 8.44144e-11, global = -5.63325e-22, cumulative = -1.01122e-19
ExecutionTime = 2.02 s  ClockTime = 3 s

Time = 0.00875

Courant Number mean: 0.0409677 max: 0.55685
smoothSolver:  Solving for Ux, Initial residual = 0.0155743, Final residual = 3.42212e-06, No Iterations 7
smoothSolver:  Solving for Uy, Initial residual = 0.0186527, Final residual = 4.78743e-06, No Iterations 7
DICPCG:  Solving for p, Initial residual = 0.0107426, Final residual = 0.000494712, No Iterations 164
time step continuity errors : sum local = 4.61967e-08, global = -2.5373e-20, cumulative = -1.26495e-19
DICPCG:  Solving for p, Initial residual = 0.00725179, Final residual = 9.97633e-07, No Iterations 220
time step continuity errors : sum local = 9.28452e-11, global = 1.99561e-20, cumulative = -1.06539e-19
ExecutionTime = 2.16 s  ClockTime = 3 s

Time = 0.009375

Courant Number mean: 0.04238 max: 0.55936
smoothSolver:  Solving for Ux, Initial residual = 0.0144612, Final residual = 3.204e-06, No Iterations 7
smoothSolver:  Solving for Uy, Initial residual = 0.0172477, Final residual = 4.433e-06, No Iterations 7
DICPCG:  Solving for p, Initial residual = 0.00995573, Final residual = 0.000453684, No Iterations 164
time step continuity errors : sum local = 4.24936e-08, global = -2.08508e-20, cumulative = -1.2739e-19
DICPCG:  Solving for p, Initial residual = 0.0067392, Final residual = 9.03553e-07, No Iterations 220
time step continuity errors : sum local = 8.43475e-11, global = 3.69062e-20, cumulative = -9.04835e-20
ExecutionTime = 2.3 s  ClockTime = 3 s

Time = 0.01

Courant Number mean: 0.0437325 max: 0.561596
smoothSolver:  Solving for Ux, Initial residual = 0.0134987, Final residual = 9.96501e-06, No Iterations 6
smoothSolver:  Solving for Uy, Initial residual = 0.0160368, Final residual = 4.1268e-06, No Iterations 7
DICPCG:  Solving for p, Initial residual = 0.00928602, Final residual = 0.000430898, No Iterations 164
time step continuity errors : sum local = 4.04641e-08, global = 4.39385e-20, cumulative = -4.6545e-20
DICPCG:  Solving for p, Initial residual = 0.00630046, Final residual = 8.20728e-07, No Iterations 220
time step continuity errors : sum local = 7.6826e-11, global = -1.44656e-20, cumulative = -6.10106e-20
ExecutionTime = 2.44 s  ClockTime = 3 s

Time = 0.010625

Courant Number mean: 0.045026 max: 0.563603
smoothSolver:  Solving for Ux, Initial residual = 0.0126518, Final residual = 9.39801e-06, No Iterations 6
smoothSolver:  Solving for Uy, Initial residual = 0.0149827, Final residual = 3.85964e-06, No Iterations 7
DICPCG:  Solving for p, Initial residual = 0.0086974, Final residual = 0.00043271, No Iterations 163
time step continuity errors : sum local = 4.07419e-08, global = -1.94648e-22, cumulative = -6.12052e-20
DICPCG:  Solving for p, Initial residual = 0.00591955, Final residual = 9.16994e-07, No Iterations 219
time step continuity errors : sum local = 8.60299e-11, global = 4.54604e-20, cumulative = -1.57448e-20
ExecutionTime = 2.58 s  ClockTime = 3 s

Time = 0.01125

Courant Number mean: 0.0462634 max: 0.565419
smoothSolver:  Solving for Ux, Initial residual = 0.0119064, Final residual = 8.89365e-06, No Iterations 6
smoothSolver:  Solving for Uy, Initial residual = 0.0140567, Final residual = 3.6245e-06, No Iterations 7
DICPCG:  Solving for p, Initial residual = 0.00821343, Final residual = 0.000378584, No Iterations 164
time step continuity errors : sum local = 3.57135e-08, global = 1.49376e-20, cumulative = -8.07235e-22
DICPCG:  Solving for p, Initial residual = 0.00555697, Final residual = 8.29787e-07, No Iterations 219
time step continuity errors : sum local = 7.8025e-11, global = -3.29793e-21, cumulative = -4.10517e-21
ExecutionTime = 2.72 s  ClockTime = 3 s

Time = 0.011875

Courant Number mean: 0.0474523 max: 0.567072
smoothSolver:  Solving for Ux, Initial residual = 0.0112467, Final residual = 8.44066e-06, No Iterations 6
smoothSolver:  Solving for Uy, Initial residual = 0.0132365, Final residual = 3.41588e-06, No Iterations 7
DICPCG:  Solving for p, Initial residual = 0.00773231, Final residual = 0.000361736, No Iterations 164
time step continuity errors : sum local = 3.41899e-08, global = -2.85143e-21, cumulative = -6.9566e-21
DICPCG:  Solving for p, Initial residual = 0.00529417, Final residual = 9.66584e-07, No Iterations 218
time step continuity errors : sum local = 9.10326e-11, global = -4.60071e-20, cumulative = -5.29637e-20
ExecutionTime = 2.86 s  ClockTime = 3 s

Time = 0.0125

Courant Number mean: 0.0486063 max: 0.568584
smoothSolver:  Solving for Ux, Initial residual = 0.0106536, Final residual = 8.03053e-06, No Iterations 6
smoothSolver:  Solving for Uy, Initial residual = 0.0125055, Final residual = 3.22958e-06, No Iterations 7
DICPCG:  Solving for p, Initial residual = 0.00732928, Final residual = 0.000344981, No Iterations 164
time step continuity errors : sum local = 3.26626e-08, global = -3.37491e-20, cumulative = -8.67127e-20
DICPCG:  Solving for p, Initial residual = 0.00502544, Final residual = 8.83546e-07, No Iterations 218
time step continuity errors : sum local = 8.33625e-11, global = -9.458e-21, cumulative = -9.61707e-20
ExecutionTime = 3 s  ClockTime = 4 s

Time = 0.013125

Courant Number mean: 0.0497213 max: 0.569976
smoothSolver:  Solving for Ux, Initial residual = 0.0101177, Final residual = 7.6598e-06, No Iterations 6
smoothSolver:  Solving for Uy, Initial residual = 0.0118495, Final residual = 9.96836e-06, No Iterations 6
DICPCG:  Solving for p, Initial residual = 0.00696337, Final residual = 0.000327028, No Iterations 164
time step continuity errors : sum local = 3.1015e-08, global = 2.32933e-21, cumulative = -9.38414e-20
DICPCG:  Solving for p, Initial residual = 0.00478273, Final residual = 8.12588e-07, No Iterations 218
time step continuity errors : sum local = 7.67953e-11, global = 6.933e-20, cumulative = -2.45114e-20
ExecutionTime = 3.14 s  ClockTime = 4 s

Time = 0.01375

Courant Number mean: 0.0507985 max: 0.571261
smoothSolver:  Solving for Ux, Initial residual = 0.00963487, Final residual = 7.32153e-06, No Iterations 6
smoothSolver:  Solving for Uy, Initial residual = 0.0112579, Final residual = 9.47539e-06, No Iterations 6
DICPCG:  Solving for p, Initial residual = 0.006639, Final residual = 0.000302284, No Iterations 164
time step continuity errors : sum local = 2.87139e-08, global = 2.16912e-20, cumulative = -2.82024e-21
DICPCG:  Solving for p, Initial residual = 0.0045605, Final residual = 9.83254e-07, No Iterations 217
time step continuity errors : sum local = 9.30156e-11, global = -4.66194e-21, cumulative = -7.48217e-21
ExecutionTime = 3.27 s  ClockTime = 4 s

Time = 0.014375

Courant Number mean: 0.0518395 max: 0.572453
smoothSolver:  Solving for Ux, Initial residual = 0.00919542, Final residual = 7.01123e-06, No Iterations 6
smoothSolver:  Solving for Uy, Initial residual = 0.0107216, Final residual = 9.02797e-06, No Iterations 6
DICPCG:  Solving for p, Initial residual = 0.00634098, Final residual = 0.000302247, No Iterations 164
time step continuity errors : sum local = 2.87489e-08, global = -1.48936e-20, cumulative = -2.23758e-20
DICPCG:  Solving for p, Initial residual = 0.00437318, Final residual = 9.21765e-07, No Iterations 217
time step continuity errors : sum local = 8.7321e-11, global = 5.04999e-20, cumulative = 2.81241e-20
ExecutionTime = 3.41 s  ClockTime = 4 s

Time = 0.015

Courant Number mean: 0.0528462 max: 0.573563
smoothSolver:  Solving for Ux, Initial residual = 0.00879269, Final residual = 6.72559e-06, No Iterations 6
smoothSolver:  Solving for Uy, Initial residual = 0.0102332, Final residual = 8.62013e-06, No Iterations 6
DICPCG:  Solving for p, Initial residual = 0.0060798, Final residual = 0.000287435, No Iterations 164
time step continuity errors : sum local = 2.73776e-08, global = 3.34963e-20, cumulative = 6.16203e-20
DICPCG:  Solving for p, Initial residual = 0.00419745, Final residual = 8.65289e-07, No Iterations 217
time step continuity errors : sum local = 8.20798e-11, global = 2.99385e-20, cumulative = 9.15589e-20
ExecutionTime = 3.55 s  ClockTime = 4 s

Time = 0.015625

Courant Number mean: 0.053829 max: 0.574599
smoothSolver:  Solving for Ux, Initial residual = 0.00842438, Final residual = 6.46366e-06, No Iterations 6
smoothSolver:  Solving for Uy, Initial residual = 0.00978659, Final residual = 8.24684e-06, No Iterations 6
DICPCG:  Solving for p, Initial residual = 0.00583415, Final residual = 0.00027728, No Iterations 164
time step continuity errors : sum local = 2.64444e-08, global = 6.86509e-20, cumulative = 1.6021e-19
DICPCG:  Solving for p, Initial residual = 0.00403252, Final residual = 8.0589e-07, No Iterations 217
time step continuity errors : sum local = 7.65461e-11, global = 6.25564e-20, cumulative = 2.22766e-19
ExecutionTime = 3.69 s  ClockTime = 4 s

Time = 0.01625

Courant Number mean: 0.0547872 max: 0.57557
smoothSolver:  Solving for Ux, Initial residual = 0.00808578, Final residual = 6.22112e-06, No Iterations 6
smoothSolver:  Solving for Uy, Initial residual = 0.00937667, Final residual = 7.90392e-06, No Iterations 6
DICPCG:  Solving for p, Initial residual = 0.00561102, Final residual = 0.000263506, No Iterations 164
time step continuity errors : sum local = 2.51627e-08, global = 2.57935e-20, cumulative = 2.4856e-19
DICPCG:  Solving for p, Initial residual = 0.00388069, Final residual = 9.73483e-07, No Iterations 216
time step continuity errors : sum local = 9.25857e-11, global = -8.54589e-21, cumulative = 2.40014e-19
ExecutionTime = 3.83 s  ClockTime = 4 s

Time = 0.016875

Courant Number mean: 0.0557196 max: 0.576482
smoothSolver:  Solving for Ux, Initial residual = 0.0077721, Final residual = 5.99523e-06, No Iterations 6
smoothSolver:  Solving for Uy, Initial residual = 0.00899919, Final residual = 7.58785e-06, No Iterations 6
DICPCG:  Solving for p, Initial residual = 0.00540198, Final residual = 0.000253851, No Iterations 164
time step continuity errors : sum local = 2.42695e-08, global = 1.21645e-20, cumulative = 2.52178e-19
DICPCG:  Solving for p, Initial residual = 0.00374018, Final residual = 8.96387e-07, No Iterations 216
time step continuity errors : sum local = 8.53543e-11, global = 5.36551e-20, cumulative = 3.05833e-19
ExecutionTime = 3.97 s  ClockTime = 5 s

Time = 0.0175

Courant Number mean: 0.0566272 max: 0.57734
smoothSolver:  Solving for Ux, Initial residual = 0.00748035, Final residual = 5.78433e-06, No Iterations 6
smoothSolver:  Solving for Uy, Initial residual = 0.00865042, Final residual = 7.29563e-06, No Iterations 6
DICPCG:  Solving for p, Initial residual = 0.00520903, Final residual = 0.000240566, No Iterations 164
time step continuity errors : sum local = 2.30268e-08, global = 2.34757e-20, cumulative = 3.29309e-19
DICPCG:  Solving for p, Initial residual = 0.00361021, Final residual = 9.85787e-07, No Iterations 215
time step continuity errors : sum local = 9.39772e-11, global = 2.50164e-20, cumulative = 3.54325e-19
ExecutionTime = 4.11 s  ClockTime = 5 s

Time = 0.018125

Courant Number mean: 0.0575104 max: 0.578151
smoothSolver:  Solving for Ux, Initial residual = 0.00721007, Final residual = 5.58795e-06, No Iterations 6
smoothSolver:  Solving for Uy, Initial residual = 0.00832721, Final residual = 7.02466e-06, No Iterations 6
DICPCG:  Solving for p, Initial residual = 0.00502945, Final residual = 0.000232544, No Iterations 164
time step continuity errors : sum local = 2.22828e-08, global = 2.84589e-20, cumulative = 3.82784e-19
DICPCG:  Solving for p, Initial residual = 0.00349026, Final residual = 8.98618e-07, No Iterations 215
time step continuity errors : sum local = 8.57592e-11, global = 2.90833e-20, cumulative = 4.11868e-19
ExecutionTime = 4.24 s  ClockTime = 5 s

Time = 0.01875

Courant Number mean: 0.0583701 max: 0.578917
smoothSolver:  Solving for Ux, Initial residual = 0.00695939, Final residual = 5.40516e-06, No Iterations 6
smoothSolver:  Solving for Uy, Initial residual = 0.00802694, Final residual = 6.77272e-06, No Iterations 6
DICPCG:  Solving for p, Initial residual = 0.00486713, Final residual = 0.000242523, No Iterations 163
time step continuity errors : sum local = 2.32746e-08, global = -5.03395e-21, cumulative = 4.06834e-19
DICPCG:  Solving for p, Initial residual = 0.00337502, Final residual = 9.69234e-07, No Iterations 214
time step continuity errors : sum local = 9.26108e-11, global = -8.5352e-21, cumulative = 3.98298e-19
ExecutionTime = 4.38 s  ClockTime = 5 s

Time = 0.019375

Courant Number mean: 0.0592108 max: 0.579643
smoothSolver:  Solving for Ux, Initial residual = 0.00672522, Final residual = 5.23393e-06, No Iterations 6
smoothSolver:  Solving for Uy, Initial residual = 0.0077473, Final residual = 6.53796e-06, No Iterations 6
DICPCG:  Solving for p, Initial residual = 0.00473487, Final residual = 0.000231786, No Iterations 163
time step continuity errors : sum local = 2.22666e-08, global = 3.93805e-20, cumulative = 4.37679e-19
DICPCG:  Solving for p, Initial residual = 0.00330632, Final residual = 8.928e-07, No Iterations 214
time step continuity errors : sum local = 8.54192e-11, global = 3.57491e-20, cumulative = 4.73428e-19
ExecutionTime = 4.52 s  ClockTime = 5 s

Time = 0.02

Courant Number mean: 0.0600363 max: 0.580332
smoothSolver:  Solving for Ux, Initial residual = 0.0065051, Final residual = 5.07258e-06, No Iterations 6
smoothSolver:  Solving for Uy, Initial residual = 0.00748617, Final residual = 6.31861e-06, No Iterations 6
DICPCG:  Solving for p, Initial residual = 0.00458696, Final residual = 0.000222747, No Iterations 163
time step continuity errors : sum local = 2.14184e-08, global = 1.55331e-20, cumulative = 4.88961e-19
DICPCG:  Solving for p, Initial residual = 0.00320329, Final residual = 8.41319e-07, No Iterations 214
time step continuity errors : sum local = 8.05953e-11, global = 2.69857e-20, cumulative = 5.15947e-19
ExecutionTime = 4.65 s  ClockTime = 5 s

Time = 0.020625

Courant Number mean: 0.0608447 max: 0.580988
smoothSolver:  Solving for Ux, Initial residual = 0.00629785, Final residual = 4.91998e-06, No Iterations 6
smoothSolver:  Solving for Uy, Initial residual = 0.00724182, Final residual = 6.11325e-06, No Iterations 6
DICPCG:  Solving for p, Initial residual = 0.0044529, Final residual = 0.000215845, No Iterations 163
time step continuity errors : sum local = 2.07731e-08, global = -4.09222e-20, cumulative = 4.75025e-19
DICPCG:  Solving for p, Initial residual = 0.00311027, Final residual = 9.86292e-07, No Iterations 213
time step continuity errors : sum local = 9.45803e-11, global = 4.42549e-20, cumulative = 5.1928e-19
ExecutionTime = 4.79 s  ClockTime = 5 s

Time = 0.02125

Courant Number mean: 0.0616355 max: 0.581613
smoothSolver:  Solving for Ux, Initial residual = 0.00610401, Final residual = 4.77628e-06, No Iterations 6
smoothSolver:  Solving for Uy, Initial residual = 0.00701271, Final residual = 5.9206e-06, No Iterations 6
DICPCG:  Solving for p, Initial residual = 0.00432948, Final residual = 0.000208349, No Iterations 163
time step continuity errors : sum local = 2.00688e-08, global = 8.66179e-20, cumulative = 6.05897e-19
DICPCG:  Solving for p, Initial residual = 0.00302328, Final residual = 9.63783e-07, No Iterations 213
time step continuity errors : sum local = 9.25214e-11, global = -3.81362e-20, cumulative = 5.67761e-19
ExecutionTime = 4.92 s  ClockTime = 6 s

Time = 0.021875

Courant Number mean: 0.0624086 max: 0.582208
smoothSolver:  Solving for Ux, Initial residual = 0.00592165, Final residual = 4.64103e-06, No Iterations 6
smoothSolver:  Solving for Uy, Initial residual = 0.00679751, Final residual = 5.73954e-06, No Iterations 6
DICPCG:  Solving for p, Initial residual = 0.00421025, Final residual = 0.000201469, No Iterations 163
time step continuity errors : sum local = 1.94221e-08, global = -5.84285e-20, cumulative = 5.09333e-19
DICPCG:  Solving for p, Initial residual = 0.00294087, Final residual = 9.55501e-07, No Iterations 213
time step continuity errors : sum local = 9.18146e-11, global = 1.50633e-20, cumulative = 5.24396e-19
ExecutionTime = 5.06 s  ClockTime = 6 s

Time = 0.0225

Courant Number mean: 0.0631647 max: 0.582778
smoothSolver:  Solving for Ux, Initial residual = 0.00574942, Final residual = 4.51315e-06, No Iterations 6
smoothSolver:  Solving for Uy, Initial residual = 0.00659498, Final residual = 5.56907e-06, No Iterations 6
DICPCG:  Solving for p, Initial residual = 0.00409768, Final residual = 0.000195038, No Iterations 163
time step continuity errors : sum local = 1.88168e-08, global = -1.28516e-20, cumulative = 5.11544e-19
DICPCG:  Solving for p, Initial residual = 0.00286433, Final residual = 9.51329e-07, No Iterations 213
time step continuity errors : sum local = 9.14926e-11, global = -8.12432e-21, cumulative = 5.0342e-19
ExecutionTime = 5.19 s  ClockTime = 6 s

Time = 0.023125

Courant Number mean: 0.0639044 max: 0.583322
smoothSolver:  Solving for Ux, Initial residual = 0.00558631, Final residual = 4.39191e-06, No Iterations 6
smoothSolver:  Solving for Uy, Initial residual = 0.00640406, Final residual = 5.4083e-06, No Iterations 6
DICPCG:  Solving for p, Initial residual = 0.00399248, Final residual = 0.00018904, No Iterations 163
time step continuity errors : sum local = 1.82523e-08, global = 2.82157e-20, cumulative = 5.31636e-19
DICPCG:  Solving for p, Initial residual = 0.00279224, Final residual = 9.42086e-07, No Iterations 213
time step continuity errors : sum local = 9.06754e-11, global = -3.41078e-20, cumulative = 4.97528e-19
ExecutionTime = 5.33 s  ClockTime = 6 s

Time = 0.02375

Courant Number mean: 0.0646289 max: 0.583844
smoothSolver:  Solving for Ux, Initial residual = 0.00543195, Final residual = 4.27674e-06, No Iterations 6
smoothSolver:  Solving for Uy, Initial residual = 0.00622376, Final residual = 5.25644e-06, No Iterations 6
DICPCG:  Solving for p, Initial residual = 0.00389384, Final residual = 0.000183371, No Iterations 163
time step continuity errors : sum local = 1.77181e-08, global = -7.23158e-21, cumulative = 4.90296e-19
DICPCG:  Solving for p, Initial residual = 0.00272419, Final residual = 9.21082e-07, No Iterations 213
time step continuity errors : sum local = 8.87206e-11, global = 3.35638e-20, cumulative = 5.2386e-19
ExecutionTime = 5.48 s  ClockTime = 6 s

Time = 0.024375

Courant Number mean: 0.0653434 max: 0.584344
smoothSolver:  Solving for Ux, Initial residual = 0.00528637, Final residual = 4.16712e-06, No Iterations 6
smoothSolver:  Solving for Uy, Initial residual = 0.0060533, Final residual = 5.11277e-06, No Iterations 6
DICPCG:  Solving for p, Initial residual = 0.00380067, Final residual = 0.000178026, No Iterations 163
time step continuity errors : sum local = 1.72143e-08, global = -2.03257e-20, cumulative = 5.03535e-19
DICPCG:  Solving for p, Initial residual = 0.00265972, Final residual = 8.8528e-07, No Iterations 213
time step continuity errors : sum local = 8.53366e-11, global = -1.85267e-20, cumulative = 4.85008e-19
ExecutionTime = 5.61 s  ClockTime = 6 s

Time = 0.025

Courant Number mean: 0.0660463 max: 0.584824
smoothSolver:  Solving for Ux, Initial residual = 0.00514802, Final residual = 4.06313e-06, No Iterations 6
smoothSolver:  Solving for Uy, Initial residual = 0.00589186, Final residual = 4.97668e-06, No Iterations 6
DICPCG:  Solving for p, Initial residual = 0.00371201, Final residual = 0.000172826, No Iterations 163
time step continuity errors : sum local = 1.67236e-08, global = -2.65264e-20, cumulative = 4.58481e-19
DICPCG:  Solving for p, Initial residual = 0.00259874, Final residual = 9.72379e-07, No Iterations 212
time step continuity errors : sum local = 9.3792e-11, global = -3.65819e-20, cumulative = 4.219e-19
ExecutionTime = 5.75 s  ClockTime = 6 s

Time = 0.025625

Courant Number mean: 0.0667365 max: 0.585286
smoothSolver:  Solving for Ux, Initial residual = 0.0050162, Final residual = 3.96404e-06, No Iterations 6
smoothSolver:  Solving for Uy, Initial residual = 0.00573877, Final residual = 4.84757e-06, No Iterations 6
DICPCG:  Solving for p, Initial residual = 0.00362832, Final residual = 0.000168124, No Iterations 163
time step continuity errors : sum local = 1.62801e-08, global = -3.34253e-20, cumulative = 3.88474e-19
DICPCG:  Solving for p, Initial residual = 0.00254024, Final residual = 8.96063e-07, No Iterations 212
time step continuity errors : sum local = 8.65036e-11, global = 9.99364e-20, cumulative = 4.88411e-19
ExecutionTime = 5.88 s  ClockTime = 7 s

Time = 0.02625

Courant Number mean: 0.0674143 max: 0.58573
smoothSolver:  Solving for Ux, Initial residual = 0.00489044, Final residual = 3.86947e-06, No Iterations 6
smoothSolver:  Solving for Uy, Initial residual = 0.0055934, Final residual = 4.72494e-06, No Iterations 6
DICPCG:  Solving for p, Initial residual = 0.00354793, Final residual = 0.000163318, No Iterations 163
time step continuity errors : sum local = 1.58258e-08, global = 1.34261e-20, cumulative = 5.01837e-19
DICPCG:  Solving for p, Initial residual = 0.00248463, Final residual = 9.79076e-07, No Iterations 211
time step continuity errors : sum local = 9.4575e-11, global = -6.75274e-20, cumulative = 4.34309e-19
ExecutionTime = 6.02 s  ClockTime = 7 s

Time = 0.026875

Courant Number mean: 0.0680798 max: 0.586158
smoothSolver:  Solving for Ux, Initial residual = 0.00477034, Final residual = 3.77906e-06, No Iterations 6
smoothSolver:  Solving for Uy, Initial residual = 0.0054552, Final residual = 4.60832e-06, No Iterations 6
DICPCG:  Solving for p, Initial residual = 0.0034726, Final residual = 0.000158734, No Iterations 163
time step continuity errors : sum local = 1.53923e-08, global = 9.28605e-20, cumulative = 5.2717e-19
DICPCG:  Solving for p, Initial residual = 0.00243142, Final residual = 8.94276e-07, No Iterations 211
time step continuity errors : sum local = 8.64687e-11, global = 3.86646e-21, cumulative = 5.31036e-19
ExecutionTime = 6.15 s  ClockTime = 7 s

Time = 0.0275

Courant Number mean: 0.0687334 max: 0.58657
smoothSolver:  Solving for Ux, Initial residual = 0.0046564, Final residual = 3.69248e-06, No Iterations 6
smoothSolver:  Solving for Uy, Initial residual = 0.00532367, Final residual = 4.49729e-06, No Iterations 6
DICPCG:  Solving for p, Initial residual = 0.00340048, Final residual = 0.000153964, No Iterations 163
time step continuity errors : sum local = 1.49401e-08, global = 1.69789e-20, cumulative = 5.48015e-19
DICPCG:  Solving for p, Initial residual = 0.00238002, Final residual = 8.28213e-07, No Iterations 211
time step continuity errors : sum local = 8.01646e-11, global = 1.05376e-20, cumulative = 5.58553e-19
ExecutionTime = 6.29 s  ClockTime = 7 s

Time = 0.028125

Courant Number mean: 0.069375 max: 0.586968
smoothSolver:  Solving for Ux, Initial residual = 0.00454783, Final residual = 3.60968e-06, No Iterations 6
smoothSolver:  Solving for Uy, Initial residual = 0.00519834, Final residual = 4.39146e-06, No Iterations 6
DICPCG:  Solving for p, Initial residual = 0.00333068, Final residual = 0.000150267, No Iterations 163
time step continuity errors : sum local = 1.4591e-08, global = 6.09303e-21, cumulative = 5.64646e-19
DICPCG:  Solving for p, Initial residual = 0.0023304, Final residual = 7.89483e-07, No Iterations 211
time step continuity errors : sum local = 7.6495e-11, global = 2.68869e-20, cumulative = 5.91533e-19
ExecutionTime = 6.42 s  ClockTime = 7 s

Time = 0.02875

Courant Number mean: 0.070005 max: 0.587352
smoothSolver:  Solving for Ux, Initial residual = 0.00444406, Final residual = 3.53079e-06, No Iterations 6
smoothSolver:  Solving for Uy, Initial residual = 0.00507879, Final residual = 4.29049e-06, No Iterations 6
DICPCG:  Solving for p, Initial residual = 0.00326521, Final residual = 0.000145453, No Iterations 163
time step continuity errors : sum local = 1.41332e-08, global = -2.5264e-21, cumulative = 5.89006e-19
DICPCG:  Solving for p, Initial residual = 0.00228469, Final residual = 9.91379e-07, No Iterations 210
time step continuity errors : sum local = 9.61065e-11, global = 8.11019e-20, cumulative = 6.70108e-19
ExecutionTime = 6.56 s  ClockTime = 7 s

Time = 0.029375

Courant Number mean: 0.0706261 max: 0.587723
smoothSolver:  Solving for Ux, Initial residual = 0.00434463, Final residual = 3.45526e-06, No Iterations 6
smoothSolver:  Solving for Uy, Initial residual = 0.00496464, Final residual = 4.19406e-06, No Iterations 6
DICPCG:  Solving for p, Initial residual = 0.0032012, Final residual = 0.000141335, No Iterations 163
time step continuity errors : sum local = 1.37422e-08, global = 3.01086e-20, cumulative = 7.00217e-19
DICPCG:  Solving for p, Initial residual = 0.00224034, Final residual = 7.96248e-07, No Iterations 211
time step continuity errors : sum local = 7.7281e-11, global = 1.54987e-20, cumulative = 7.15716e-19
ExecutionTime = 6.69 s  ClockTime = 7 s

Time = 0.03

Courant Number mean: 0.0712399 max: 0.588082
smoothSolver:  Solving for Ux, Initial residual = 0.00424909, Final residual = 3.38268e-06, No Iterations 6
smoothSolver:  Solving for Uy, Initial residual = 0.00485554, Final residual = 4.10187e-06, No Iterations 6
DICPCG:  Solving for p, Initial residual = 0.00314024, Final residual = 0.000155545, No Iterations 162
time step continuity errors : sum local = 1.514e-08, global = -1.18327e-20, cumulative = 7.03883e-19
DICPCG:  Solving for p, Initial residual = 0.00219659, Final residual = 8.32341e-07, No Iterations 211
time step continuity errors : sum local = 8.08312e-11, global = -3.84205e-21, cumulative = 7.00041e-19
ExecutionTime = 6.83 s  ClockTime = 7 s

Time = 0.030625

Courant Number mean: 0.0718449 max: 0.588429
smoothSolver:  Solving for Ux, Initial residual = 0.00415726, Final residual = 3.31278e-06, No Iterations 6
smoothSolver:  Solving for Uy, Initial residual = 0.00475122, Final residual = 4.01369e-06, No Iterations 6
DICPCG:  Solving for p, Initial residual = 0.0030913, Final residual = 0.000150907, No Iterations 162
time step continuity errors : sum local = 1.46977e-08, global = -1.50204e-19, cumulative = 5.49837e-19
DICPCG:  Solving for p, Initial residual = 0.00217736, Final residual = 8.81589e-07, No Iterations 211
time step continuity errors : sum local = 8.56518e-11, global = -2.50126e-20, cumulative = 5.24825e-19
ExecutionTime = 6.96 s  ClockTime = 8 s

Time = 0.03125

Courant Number mean: 0.0724408 max: 0.588766
smoothSolver:  Solving for Ux, Initial residual = 0.00406955, Final residual = 3.24544e-06, No Iterations 6
smoothSolver:  Solving for Uy, Initial residual = 0.0046513, Final residual = 3.92921e-06, No Iterations 6
DICPCG:  Solving for p, Initial residual = 0.00303265, Final residual = 0.000146981, No Iterations 162
time step continuity errors : sum local = 1.43238e-08, global = 3.30157e-21, cumulative = 5.28126e-19
DICPCG:  Solving for p, Initial residual = 0.0021359, Final residual = 9.40693e-07, No Iterations 211
time step continuity errors : sum local = 9.14264e-11, global = 1.816e-20, cumulative = 5.46286e-19
ExecutionTime = 7.1 s  ClockTime = 8 s

Time = 0.031875

Courant Number mean: 0.0730278 max: 0.589092
smoothSolver:  Solving for Ux, Initial residual = 0.00398539, Final residual = 3.18055e-06, No Iterations 6
smoothSolver:  Solving for Uy, Initial residual = 0.00455553, Final residual = 3.84823e-06, No Iterations 6
DICPCG:  Solving for p, Initial residual = 0.00297923, Final residual = 0.000141661, No Iterations 162
time step continuity errors : sum local = 1.38143e-08, global = 4.50678e-21, cumulative = 5.50793e-19
DICPCG:  Solving for p, Initial residual = 0.00209691, Final residual = 9.94087e-07, No Iterations 211
time step continuity errors : sum local = 9.66477e-11, global = 4.06699e-20, cumulative = 5.91463e-19
ExecutionTime = 7.23 s  ClockTime = 8 s

Time = 0.0325

Courant Number mean: 0.0736058 max: 0.589408
smoothSolver:  Solving for Ux, Initial residual = 0.00390446, Final residual = 3.11836e-06, No Iterations 6
smoothSolver:  Solving for Uy, Initial residual = 0.00446368, Final residual = 3.77055e-06, No Iterations 6
DICPCG:  Solving for p, Initial residual = 0.0029277, Final residual = 0.000137451, No Iterations 162
time step continuity errors : sum local = 1.34116e-08, global = 1.05674e-20, cumulative = 6.0203e-19
DICPCG:  Solving for p, Initial residual = 0.00205921, Final residual = 8.91171e-07, No Iterations 212
time step continuity errors : sum local = 8.66843e-11, global = -6.82838e-21, cumulative = 5.95202e-19
ExecutionTime = 7.37 s  ClockTime = 8 s

Time = 0.033125

Courant Number mean: 0.0741748 max: 0.589715
smoothSolver:  Solving for Ux, Initial residual = 0.00382653, Final residual = 3.0586e-06, No Iterations 6
smoothSolver:  Solving for Uy, Initial residual = 0.00437552, Final residual = 3.69597e-06, No Iterations 6
DICPCG:  Solving for p, Initial residual = 0.00287817, Final residual = 0.000133768, No Iterations 162
time step continuity errors : sum local = 1.30594e-08, global = 5.43045e-20, cumulative = 6.49506e-19
DICPCG:  Solving for p, Initial residual = 0.00202302, Final residual = 9.29864e-07, No Iterations 212
time step continuity errors : sum local = 9.04763e-11, global = 6.85402e-21, cumulative = 6.5636e-19
ExecutionTime = 7.51 s  ClockTime = 8 s

Time = 0.03375

Courant Number mean: 0.0747354 max: 0.590013
smoothSolver:  Solving for Ux, Initial residual = 0.00375142, Final residual = 9.83765e-06, No Iterations 5
smoothSolver:  Solving for Uy, Initial residual = 0.00429084, Final residual = 3.62432e-06, No Iterations 6
DICPCG:  Solving for p, Initial residual = 0.00283434, Final residual = 0.000141075, No Iterations 160
time step continuity errors : sum local = 1.37979e-08, global = 4.54376e-20, cumulative = 7.01798e-19
DICPCG:  Solving for p, Initial residual = 0.00196508, Final residual = 9.95774e-07, No Iterations 212
time step continuity errors : sum local = 9.69204e-11, global = -2.10679e-20, cumulative = 6.8073e-19
ExecutionTime = 7.64 s  ClockTime = 8 s

Time = 0.034375

Courant Number mean: 0.075287 max: 0.590302
smoothSolver:  Solving for Ux, Initial residual = 0.00367907, Final residual = 9.65487e-06, No Iterations 5
smoothSolver:  Solving for Uy, Initial residual = 0.00420946, Final residual = 3.55543e-06, No Iterations 6
DICPCG:  Solving for p, Initial residual = 0.00279916, Final residual = 0.000138228, No Iterations 94
time step continuity errors : sum local = 1.60843e-08, global = 7.97946e-21, cumulative = 6.88709e-19
DICPCG:  Solving for p, Initial residual = 0.00196589, Final residual = 8.43289e-07, No Iterations 213
time step continuity errors : sum local = 8.21305e-11, global = 1.34966e-20, cumulative = 7.02206e-19
ExecutionTime = 7.75 s  ClockTime = 8 s

Time = 0.035

Courant Number mean: 0.0758302 max: 0.590583
smoothSolver:  Solving for Ux, Initial residual = 0.00360714, Final residual = 9.47075e-06, No Iterations 5
smoothSolver:  Solving for Uy, Initial residual = 0.00413635, Final residual = 3.49354e-06, No Iterations 6
DICPCG:  Solving for p, Initial residual = 0.00283388, Final residual = 0.000132273, No Iterations 91
time step continuity errors : sum local = 1.36981e-08, global = 1.2377e-20, cumulative = 7.14583e-19
DICPCG:  Solving for p, Initial residual = 0.00194354, Final residual = 9.77401e-07, No Iterations 212
time step continuity errors : sum local = 9.52486e-11, global = -5.17628e-20, cumulative = 6.6282e-19
ExecutionTime = 7.87 s  ClockTime = 9 s

Time = 0.035625

Courant Number mean: 0.0763674 max: 0.590856
smoothSolver:  Solving for Ux, Initial residual = 0.00354377, Final residual = 9.31062e-06, No Iterations 5
smoothSolver:  Solving for Uy, Initial residual = 0.00405257, Final residual = 3.42234e-06, No Iterations 6
DICPCG:  Solving for p, Initial residual = 0.00272706, Final residual = 0.000134268, No Iterations 159
time step continuity errors : sum local = 1.31583e-08, global = 2.64348e-20, cumulative = 6.89255e-19
DICPCG:  Solving for p, Initial residual = 0.00189911, Final residual = 8.35932e-07, No Iterations 213
time step continuity errors : sum local = 8.14399e-11, global = 3.18574e-20, cumulative = 7.21113e-19
ExecutionTime = 8 s  ClockTime = 9 s

Time = 0.03625

Courant Number mean: 0.0768993 max: 0.591122
smoothSolver:  Solving for Ux, Initial residual = 0.0034781, Final residual = 9.14236e-06, No Iterations 5
smoothSolver:  Solving for Uy, Initial residual = 0.00398314, Final residual = 3.36385e-06, No Iterations 6
DICPCG:  Solving for p, Initial residual = 0.00267627, Final residual = 0.000133005, No Iterations 93
time step continuity errors : sum local = 1.54016e-08, global = 1.53115e-20, cumulative = 7.36424e-19
DICPCG:  Solving for p, Initial residual = 0.00187984, Final residual = 8.37994e-07, No Iterations 213
time step continuity errors : sum local = 8.17006e-11, global = 3.2721e-20, cumulative = 7.69145e-19
ExecutionTime = 8.11 s  ClockTime = 9 s

Time = 0.036875

Courant Number mean: 0.0774246 max: 0.591381
smoothSolver:  Solving for Ux, Initial residual = 0.00341334, Final residual = 8.97537e-06, No Iterations 5
smoothSolver:  Solving for Uy, Initial residual = 0.00391772, Final residual = 3.30844e-06, No Iterations 6
DICPCG:  Solving for p, Initial residual = 0.0027023, Final residual = 0.000124935, No Iterations 91
time step continuity errors : sum local = 1.293e-08, global = 3.59327e-22, cumulative = 7.69504e-19
DICPCG:  Solving for p, Initial residual = 0.00185361, Final residual = 9.9229e-07, No Iterations 212
time step continuity errors : sum local = 9.67969e-11, global = 1.45703e-20, cumulative = 7.84075e-19
ExecutionTime = 8.22 s  ClockTime = 9 s

Time = 0.0375

Courant Number mean: 0.0779435 max: 0.591633
smoothSolver:  Solving for Ux, Initial residual = 0.00335592, Final residual = 8.83043e-06, No Iterations 5
smoothSolver:  Solving for Uy, Initial residual = 0.00384285, Final residual = 3.24479e-06, No Iterations 6
DICPCG:  Solving for p, Initial residual = 0.0026049, Final residual = 0.000127991, No Iterations 159
time step continuity errors : sum local = 1.25557e-08, global = 4.20849e-20, cumulative = 8.2616e-19
DICPCG:  Solving for p, Initial residual = 0.00181541, Final residual = 9.92572e-07, No Iterations 212
time step continuity errors : sum local = 9.68038e-11, global = 2.71051e-20, cumulative = 8.53265e-19
ExecutionTime = 8.36 s  ClockTime = 9 s

Time = 0.038125

Courant Number mean: 0.0784557 max: 0.591879
smoothSolver:  Solving for Ux, Initial residual = 0.00329639, Final residual = 8.67863e-06, No Iterations 5
smoothSolver:  Solving for Uy, Initial residual = 0.00378062, Final residual = 3.19231e-06, No Iterations 6
DICPCG:  Solving for p, Initial residual = 0.00255855, Final residual = 0.00012489, No Iterations 93
time step continuity errors : sum local = 1.44569e-08, global = -8.14353e-21, cumulative = 8.45121e-19
DICPCG:  Solving for p, Initial residual = 0.00179841, Final residual = 9.93044e-07, No Iterations 212
time step continuity errors : sum local = 9.69441e-11, global = -4.39789e-20, cumulative = 8.01142e-19
ExecutionTime = 8.47 s  ClockTime = 9 s

Time = 0.03875

Courant Number mean: 0.0789613 max: 0.592119
smoothSolver:  Solving for Ux, Initial residual = 0.00323758, Final residual = 8.52788e-06, No Iterations 5
smoothSolver:  Solving for Uy, Initial residual = 0.00372178, Final residual = 3.14245e-06, No Iterations 6
DICPCG:  Solving for p, Initial residual = 0.00258593, Final residual = 0.000118766, No Iterations 91
time step continuity errors : sum local = 1.22923e-08, global = 5.50966e-20, cumulative = 8.56239e-19
DICPCG:  Solving for p, Initial residual = 0.00177554, Final residual = 9.75185e-07, No Iterations 212
time step continuity errors : sum local = 9.52291e-11, global = -2.47486e-20, cumulative = 8.3149e-19
ExecutionTime = 8.58 s  ClockTime = 9 s

Time = 0.039375

Courant Number mean: 0.0794602 max: 0.592352
smoothSolver:  Solving for Ux, Initial residual = 0.00318564, Final residual = 8.39627e-06, No Iterations 5
smoothSolver:  Solving for Uy, Initial residual = 0.00365443, Final residual = 3.08518e-06, No Iterations 6
DICPCG:  Solving for p, Initial residual = 0.00249572, Final residual = 0.000120742, No Iterations 158
time step continuity errors : sum local = 1.18606e-08, global = -3.93565e-20, cumulative = 7.92134e-19
DICPCG:  Solving for p, Initial residual = 0.00174065, Final residual = 9.56201e-07, No Iterations 212
time step continuity errors : sum local = 9.33678e-11, global = 2.89221e-20, cumulative = 8.21056e-19
ExecutionTime = 8.72 s  ClockTime = 9 s

Time = 0.04

Courant Number mean: 0.0799526 max: 0.59258
smoothSolver:  Solving for Ux, Initial residual = 0.0031319, Final residual = 8.25816e-06, No Iterations 5
smoothSolver:  Solving for Uy, Initial residual = 0.00359828, Final residual = 9.88105e-06, No Iterations 5
DICPCG:  Solving for p, Initial residual = 0.00244446, Final residual = 0.000115563, No Iterations 93
time step continuity errors : sum local = 1.34946e-08, global = 6.84029e-20, cumulative = 8.89459e-19
DICPCG:  Solving for p, Initial residual = 0.00171472, Final residual = 9.39928e-07, No Iterations 212
time step continuity errors : sum local = 9.18558e-11, global = -3.819e-20, cumulative = 8.51269e-19
ExecutionTime = 8.83 s  ClockTime = 9 s

Time = 0.040625

Courant Number mean: 0.0804385 max: 0.592803
smoothSolver:  Solving for Ux, Initial residual = 0.00307875, Final residual = 8.12028e-06, No Iterations 5
smoothSolver:  Solving for Uy, Initial residual = 0.00354538, Final residual = 9.7352e-06, No Iterations 5
DICPCG:  Solving for p, Initial residual = 0.0024733, Final residual = 0.000108624, No Iterations 91
time step continuity errors : sum local = 1.12949e-08, global = 2.16841e-20, cumulative = 8.72953e-19
DICPCG:  Solving for p, Initial residual = 0.00169097, Final residual = 9.14702e-07, No Iterations 212
time step continuity errors : sum local = 8.94093e-11, global = 5.77161e-20, cumulative = 9.30669e-19
ExecutionTime = 8.94 s  ClockTime = 10 s

Time = 0.04125

Courant Number mean: 0.0809181 max: 0.59302
smoothSolver:  Solving for Ux, Initial residual = 0.00303165, Final residual = 8e-06, No Iterations 5
smoothSolver:  Solving for Uy, Initial residual = 0.00348432, Final residual = 9.56646e-06, No Iterations 5
DICPCG:  Solving for p, Initial residual = 0.00238341, Final residual = 0.000115919, No Iterations 157
time step continuity errors : sum local = 1.14015e-08, global = -8.00142e-20, cumulative = 8.50655e-19
DICPCG:  Solving for p, Initial residual = 0.00166017, Final residual = 9.24577e-07, No Iterations 212
time step continuity errors : sum local = 9.03801e-11, global = 3.86777e-20, cumulative = 8.89332e-19
ExecutionTime = 9.07 s  ClockTime = 10 s

Time = 0.041875

Courant Number mean: 0.0813917 max: 0.593232
smoothSolver:  Solving for Ux, Initial residual = 0.00298269, Final residual = 7.87401e-06, No Iterations 5
smoothSolver:  Solving for Uy, Initial residual = 0.00343349, Final residual = 9.42705e-06, No Iterations 5
DICPCG:  Solving for p, Initial residual = 0.00235515, Final residual = 0.000109045, No Iterations 93
time step continuity errors : sum local = 1.27335e-08, global = 6.10922e-20, cumulative = 9.50425e-19
DICPCG:  Solving for p, Initial residual = 0.00165186, Final residual = 9.17337e-07, No Iterations 212
time step continuity errors : sum local = 8.97412e-11, global = 8.64399e-21, cumulative = 9.59069e-19
ExecutionTime = 9.18 s  ClockTime = 10 s

Time = 0.0425

Courant Number mean: 0.0818601 max: 0.593439
smoothSolver:  Solving for Ux, Initial residual = 0.0029341, Final residual = 7.7485e-06, No Iterations 5
smoothSolver:  Solving for Uy, Initial residual = 0.00338545, Final residual = 9.29458e-06, No Iterations 5
DICPCG:  Solving for p, Initial residual = 0.00237714, Final residual = 0.000118392, No Iterations 90
time step continuity errors : sum local = 1.22102e-08, global = 3.98909e-20, cumulative = 9.98959e-19
DICPCG:  Solving for p, Initial residual = 0.00163316, Final residual = 8.85304e-07, No Iterations 212
time step continuity errors : sum local = 8.66269e-11, global = -5.33023e-20, cumulative = 9.45657e-19
ExecutionTime = 9.29 s  ClockTime = 10 s

Time = 0.043125

Courant Number mean: 0.082325 max: 0.593642
smoothSolver:  Solving for Ux, Initial residual = 0.00289084, Final residual = 7.63897e-06, No Iterations 5
smoothSolver:  Solving for Uy, Initial residual = 0.00332997, Final residual = 9.14114e-06, No Iterations 5
DICPCG:  Solving for p, Initial residual = 0.00229886, Final residual = 0.000110707, No Iterations 157
time step continuity errors : sum local = 1.08961e-08, global = -8.26625e-20, cumulative = 8.62995e-19
DICPCG:  Solving for p, Initial residual = 0.00159981, Final residual = 9.05677e-07, No Iterations 212
time step continuity errors : sum local = 8.86273e-11, global = 6.62636e-20, cumulative = 9.29258e-19
ExecutionTime = 9.43 s  ClockTime = 10 s

Time = 0.04375

Courant Number mean: 0.0827853 max: 0.59384
smoothSolver:  Solving for Ux, Initial residual = 0.00284594, Final residual = 7.52361e-06, No Iterations 5
smoothSolver:  Solving for Uy, Initial residual = 0.00328375, Final residual = 9.01435e-06, No Iterations 5
DICPCG:  Solving for p, Initial residual = 0.00226612, Final residual = 0.000112174, No Iterations 92
time step continuity errors : sum local = 1.29333e-08, global = -2.11955e-20, cumulative = 9.08063e-19
DICPCG:  Solving for p, Initial residual = 0.00159008, Final residual = 8.96971e-07, No Iterations 212
time step continuity errors : sum local = 8.78385e-11, global = -1.00827e-20, cumulative = 8.9798e-19
ExecutionTime = 9.54 s  ClockTime = 10 s

Time = 0.044375

Courant Number mean: 0.0832405 max: 0.594034
smoothSolver:  Solving for Ux, Initial residual = 0.00280145, Final residual = 7.40799e-06, No Iterations 5
smoothSolver:  Solving for Uy, Initial residual = 0.00323994, Final residual = 8.89351e-06, No Iterations 5
DICPCG:  Solving for p, Initial residual = 0.00228665, Final residual = 0.000112009, No Iterations 90
time step continuity errors : sum local = 1.15564e-08, global = -3.94725e-20, cumulative = 8.58508e-19
DICPCG:  Solving for p, Initial residual = 0.00157132, Final residual = 9.85326e-07, No Iterations 211
time step continuity errors : sum local = 9.65024e-11, global = 3.15885e-20, cumulative = 8.90096e-19
ExecutionTime = 9.65 s  ClockTime = 10 s

Time = 0.045

Courant Number mean: 0.0836908 max: 0.594224
smoothSolver:  Solving for Ux, Initial residual = 0.0027619, Final residual = 7.30678e-06, No Iterations 5
smoothSolver:  Solving for Uy, Initial residual = 0.00318944, Final residual = 8.75382e-06, No Iterations 5
DICPCG:  Solving for p, Initial residual = 0.00221574, Final residual = 0.000109183, No Iterations 156
time step continuity errors : sum local = 1.07527e-08, global = -8.34336e-20, cumulative = 8.06662e-19
DICPCG:  Solving for p, Initial residual = 0.00154647, Final residual = 8.82607e-07, No Iterations 212
time step continuity errors : sum local = 8.64578e-11, global = -5.10942e-20, cumulative = 7.55568e-19
ExecutionTime = 9.78 s  ClockTime = 10 s

Time = 0.045625

Courant Number mean: 0.0841361 max: 0.59441
smoothSolver:  Solving for Ux, Initial residual = 0.00272079, Final residual = 7.2002e-06, No Iterations 5
smoothSolver:  Solving for Uy, Initial residual = 0.00314718, Final residual = 8.63788e-06, No Iterations 5
DICPCG:  Solving for p, Initial residual = 0.00219165, Final residual = 0.00010594, No Iterations 92
time step continuity errors : sum local = 1.22227e-08, global = 3.33513e-20, cumulative = 7.8892e-19
DICPCG:  Solving for p, Initial residual = 0.00153792, Final residual = 8.73733e-07, No Iterations 212
time step continuity errors : sum local = 8.56467e-11, global = -3.52502e-20, cumulative = 7.53669e-19
ExecutionTime = 9.89 s  ClockTime = 11 s

Time = 0.04625

Courant Number mean: 0.0845765 max: 0.594592
smoothSolver:  Solving for Ux, Initial residual = 0.00267987, Final residual = 7.09321e-06, No Iterations 5
smoothSolver:  Solving for Uy, Initial residual = 0.00310712, Final residual = 8.52745e-06, No Iterations 5
DICPCG:  Solving for p, Initial residual = 0.00220552, Final residual = 0.000105258, No Iterations 90
time step continuity errors : sum local = 1.08698e-08, global = 1.68882e-20, cumulative = 7.70558e-19
DICPCG:  Solving for p, Initial residual = 0.00151579, Final residual = 9.45337e-07, No Iterations 211
time step continuity errors : sum local = 9.2686e-11, global = 2.65746e-20, cumulative = 7.97132e-19
ExecutionTime = 10 s  ClockTime = 11 s

Time = 0.046875

Courant Number mean: 0.085012 max: 0.59477
smoothSolver:  Solving for Ux, Initial residual = 0.00264337, Final residual = 6.99988e-06, No Iterations 5
smoothSolver:  Solving for Uy, Initial residual = 0.00306093, Final residual = 8.39965e-06, No Iterations 5
DICPCG:  Solving for p, Initial residual = 0.00213903, Final residual = 0.00010091, No Iterations 156
time step continuity errors : sum local = 9.94424e-09, global = -5.75289e-20, cumulative = 7.39603e-19
DICPCG:  Solving for p, Initial residual = 0.00149197, Final residual = 8.61538e-07, No Iterations 212
time step continuity errors : sum local = 8.44765e-11, global = -1.53381e-20, cumulative = 7.24265e-19
ExecutionTime = 10.14 s  ClockTime = 11 s

Time = 0.0475

Courant Number mean: 0.0854426 max: 0.594945
smoothSolver:  Solving for Ux, Initial residual = 0.00260538, Final residual = 6.90192e-06, No Iterations 5
smoothSolver:  Solving for Uy, Initial residual = 0.00302216, Final residual = 8.29325e-06, No Iterations 5
DICPCG:  Solving for p, Initial residual = 0.00211747, Final residual = 0.000100508, No Iterations 92
time step continuity errors : sum local = 1.16001e-08, global = -1.33815e-21, cumulative = 7.22927e-19
DICPCG:  Solving for p, Initial residual = 0.00148543, Final residual = 9.81531e-07, No Iterations 211
time step continuity errors : sum local = 9.62956e-11, global = 2.33395e-20, cumulative = 7.46267e-19
ExecutionTime = 10.25 s  ClockTime = 11 s

Time = 0.048125

Courant Number mean: 0.0858682 max: 0.595116
smoothSolver:  Solving for Ux, Initial residual = 0.00256748, Final residual = 6.80371e-06, No Iterations 5
smoothSolver:  Solving for Uy, Initial residual = 0.00298543, Final residual = 8.19196e-06, No Iterations 5
DICPCG:  Solving for p, Initial residual = 0.00213164, Final residual = 9.92642e-05, No Iterations 90
time step continuity errors : sum local = 1.02595e-08, global = 5.17009e-20, cumulative = 7.97967e-19
DICPCG:  Solving for p, Initial residual = 0.00146489, Final residual = 8.77624e-07, No Iterations 211
time step continuity errors : sum local = 8.61475e-11, global = 7.82541e-20, cumulative = 8.76222e-19
ExecutionTime = 10.36 s  ClockTime = 11 s

Time = 0.04875

Courant Number mean: 0.0862891 max: 0.595284
smoothSolver:  Solving for Ux, Initial residual = 0.00253377, Final residual = 6.71756e-06, No Iterations 5
smoothSolver:  Solving for Uy, Initial residual = 0.00294303, Final residual = 8.07461e-06, No Iterations 5
DICPCG:  Solving for p, Initial residual = 0.00206833, Final residual = 9.51828e-05, No Iterations 156
time step continuity errors : sum local = 9.38374e-09, global = 3.22163e-22, cumulative = 8.76544e-19
DICPCG:  Solving for p, Initial residual = 0.00144262, Final residual = 9.8776e-07, No Iterations 211
time step continuity errors : sum local = 9.69703e-11, global = -1.66198e-20, cumulative = 8.59924e-19
ExecutionTime = 10.49 s  ClockTime = 11 s

Time = 0.049375

Courant Number mean: 0.0867054 max: 0.595448
smoothSolver:  Solving for Ux, Initial residual = 0.00249879, Final residual = 6.62683e-06, No Iterations 5
smoothSolver:  Solving for Uy, Initial residual = 0.00290734, Final residual = 7.97662e-06, No Iterations 5
DICPCG:  Solving for p, Initial residual = 0.00204913, Final residual = 0.000101595, No Iterations 91
time step continuity errors : sum local = 1.16319e-08, global = 4.25326e-20, cumulative = 9.02457e-19
DICPCG:  Solving for p, Initial residual = 0.00143737, Final residual = 9.46256e-07, No Iterations 211
time step continuity errors : sum local = 9.29211e-11, global = 3.87341e-20, cumulative = 9.41191e-19
ExecutionTime = 10.6 s  ClockTime = 11 s

Time = 0.05

Courant Number mean: 0.0871171 max: 0.59561
smoothSolver:  Solving for Ux, Initial residual = 0.00246398, Final residual = 6.5357e-06, No Iterations 5
smoothSolver:  Solving for Uy, Initial residual = 0.00287349, Final residual = 7.88328e-06, No Iterations 5
DICPCG:  Solving for p, Initial residual = 0.0020616, Final residual = 9.23021e-05, No Iterations 90
time step continuity errors : sum local = 9.55074e-09, global = 1.38919e-20, cumulative = 9.55082e-19
DICPCG:  Solving for p, Initial residual = 0.0014328, Final residual = 9.84451e-07, No Iterations 203
time step continuity errors : sum local = 9.67857e-11, global = 2.96677e-20, cumulative = 9.8475e-19
ExecutionTime = 10.71 s  ClockTime = 11 s

Time = 0.050625

Courant Number mean: 0.0875251 max: 0.595768
smoothSolver:  Solving for Ux, Initial residual = 0.00243288, Final residual = 6.45561e-06, No Iterations 5
smoothSolver:  Solving for Uy, Initial residual = 0.00283452, Final residual = 7.77541e-06, No Iterations 5
DICPCG:  Solving for p, Initial residual = 0.00200904, Final residual = 9.05602e-05, No Iterations 156
time step continuity errors : sum local = 8.93064e-09, global = -2.035e-20, cumulative = 9.644e-19
DICPCG:  Solving for p, Initial residual = 0.00139546, Final residual = 9.613e-07, No Iterations 211
time step continuity errors : sum local = 9.44642e-11, global = 8.30717e-20, cumulative = 1.04747e-18
ExecutionTime = 10.84 s  ClockTime = 12 s

Time = 0.05125

Courant Number mean: 0.0879305 max: 0.595923
smoothSolver:  Solving for Ux, Initial residual = 0.00240044, Final residual = 6.37109e-06, No Iterations 5
smoothSolver:  Solving for Uy, Initial residual = 0.00280155, Final residual = 7.68491e-06, No Iterations 5
DICPCG:  Solving for p, Initial residual = 0.00198519, Final residual = 9.6144e-05, No Iterations 91
time step continuity errors : sum local = 1.10214e-08, global = -5.09837e-20, cumulative = 9.96488e-19
DICPCG:  Solving for p, Initial residual = 0.00139121, Final residual = 8.99536e-07, No Iterations 211
time step continuity errors : sum local = 8.84242e-11, global = -4.16341e-20, cumulative = 9.54854e-19
ExecutionTime = 10.95 s  ClockTime = 12 s

Time = 0.051875

Courant Number mean: 0.0883325 max: 0.596076
smoothSolver:  Solving for Ux, Initial residual = 0.00236804, Final residual = 6.28613e-06, No Iterations 5
smoothSolver:  Solving for Uy, Initial residual = 0.00277031, Final residual = 7.59881e-06, No Iterations 5
DICPCG:  Solving for p, Initial residual = 0.00200244, Final residual = 8.76928e-05, No Iterations 90
time step continuity errors : sum local = 9.07734e-09, global = -3.60375e-20, cumulative = 9.18817e-19
DICPCG:  Solving for p, Initial residual = 0.00138668, Final residual = 9.66481e-07, No Iterations 200
time step continuity errors : sum local = 9.51799e-11, global = -8.15122e-20, cumulative = 8.37305e-19
ExecutionTime = 11.06 s  ClockTime = 12 s

Time = 0.0525

Courant Number mean: 0.0887308 max: 0.596226
smoothSolver:  Solving for Ux, Initial residual = 0.00233897, Final residual = 6.21154e-06, No Iterations 5
smoothSolver:  Solving for Uy, Initial residual = 0.00273432, Final residual = 7.49917e-06, No Iterations 5
DICPCG:  Solving for p, Initial residual = 0.0019579, Final residual = 8.63299e-05, No Iterations 156
time step continuity errors : sum local = 8.51666e-09, global = -4.74206e-20, cumulative = 7.89884e-19
DICPCG:  Solving for p, Initial residual = 0.00135438, Final residual = 9.17062e-07, No Iterations 211
time step continuity errors : sum local = 9.02088e-11, global = -3.59093e-20, cumulative = 7.53975e-19
ExecutionTime = 11.2 s  ClockTime = 12 s

Time = 0.053125

Courant Number mean: 0.0891253 max: 0.596373
smoothSolver:  Solving for Ux, Initial residual = 0.00230864, Final residual = 6.133e-06, No Iterations 5
smoothSolver:  Solving for Uy, Initial residual = 0.00270378, Final residual = 7.41535e-06, No Iterations 5
DICPCG:  Solving for p, Initial residual = 0.00192805, Final residual = 9.11116e-05, No Iterations 91
time step continuity errors : sum local = 1.04576e-08, global = 5.75538e-20, cumulative = 8.11528e-19
DICPCG:  Solving for p, Initial residual = 0.00135024, Final residual = 9.04087e-07, No Iterations 209
time step continuity errors : sum local = 8.90498e-11, global = -1.37355e-20, cumulative = 7.97793e-19
ExecutionTime = 11.31 s  ClockTime = 12 s

Time = 0.05375

Courant Number mean: 0.089516 max: 0.596518
smoothSolver:  Solving for Ux, Initial residual = 0.0022784, Final residual = 6.05416e-06, No Iterations 5
smoothSolver:  Solving for Uy, Initial residual = 0.00267487, Final residual = 7.33562e-06, No Iterations 5
DICPCG:  Solving for p, Initial residual = 0.00193605, Final residual = 8.27097e-05, No Iterations 90
time step continuity errors : sum local = 8.56825e-09, global = -2.12761e-21, cumulative = 7.95665e-19
DICPCG:  Solving for p, Initial residual = 0.00134481, Final residual = 8.93367e-07, No Iterations 210
time step continuity errors : sum local = 8.78389e-11, global = -3.4733e-20, cumulative = 7.60932e-19
ExecutionTime = 11.42 s  ClockTime = 12 s

Time = 0.054375

Courant Number mean: 0.089903 max: 0.59666
smoothSolver:  Solving for Ux, Initial residual = 0.00225136, Final residual = 5.98457e-06, No Iterations 5
smoothSolver:  Solving for Uy, Initial residual = 0.00264154, Final residual = 7.24335e-06, No Iterations 5
DICPCG:  Solving for p, Initial residual = 0.00188233, Final residual = 8.29009e-05, No Iterations 156
time step continuity errors : sum local = 8.18022e-09, global = -3.80503e-20, cumulative = 7.22882e-19
DICPCG:  Solving for p, Initial residual = 0.00131569, Final residual = 9.2095e-07, No Iterations 209
time step continuity errors : sum local = 9.07225e-11, global = 2.96629e-21, cumulative = 7.25848e-19
ExecutionTime = 11.55 s  ClockTime = 12 s

Time = 0.055

Courant Number mean: 0.0902864 max: 0.5968
smoothSolver:  Solving for Ux, Initial residual = 0.00222322, Final residual = 5.91114e-06, No Iterations 5
smoothSolver:  Solving for Uy, Initial residual = 0.0026132, Final residual = 7.16549e-06, No Iterations 5
DICPCG:  Solving for p, Initial residual = 0.00187139, Final residual = 8.74098e-05, No Iterations 91
time step continuity errors : sum local = 1.00301e-08, global = 9.32833e-20, cumulative = 8.19131e-19
DICPCG:  Solving for p, Initial residual = 0.00131094, Final residual = 9.93909e-07, No Iterations 200
time step continuity errors : sum local = 9.80273e-11, global = 9.22935e-21, cumulative = 8.28361e-19
ExecutionTime = 11.66 s  ClockTime = 12 s

Time = 0.055625

Courant Number mean: 0.0906661 max: 0.596937
smoothSolver:  Solving for Ux, Initial residual = 0.0021952, Final residual = 5.83749e-06, No Iterations 5
smoothSolver:  Solving for Uy, Initial residual = 0.00258636, Final residual = 7.09154e-06, No Iterations 5
DICPCG:  Solving for p, Initial residual = 0.0018812, Final residual = 9.11016e-05, No Iterations 89
time step continuity errors : sum local = 9.36709e-09, global = 8.90817e-20, cumulative = 9.17442e-19
DICPCG:  Solving for p, Initial residual = 0.00129774, Final residual = 9.60778e-07, No Iterations 210
time step continuity errors : sum local = 9.45302e-11, global = -6.5078e-20, cumulative = 8.52365e-19
ExecutionTime = 11.77 s  ClockTime = 12 s

Time = 0.05625

Courant Number mean: 0.0910419 max: 0.597072
smoothSolver:  Solving for Ux, Initial residual = 0.00216995, Final residual = 5.77226e-06, No Iterations 5
smoothSolver:  Solving for Uy, Initial residual = 0.0025554, Final residual = 7.00579e-06, No Iterations 5
DICPCG:  Solving for p, Initial residual = 0.00184714, Final residual = 7.78495e-05, No Iterations 156
time step continuity errors : sum local = 7.68447e-09, global = -6.8994e-21, cumulative = 8.45465e-19
DICPCG:  Solving for p, Initial residual = 0.00128241, Final residual = 9.28142e-07, No Iterations 200
time step continuity errors : sum local = 9.15627e-11, global = -1.0073e-20, cumulative = 8.35392e-19
ExecutionTime = 11.89 s  ClockTime = 13 s

Time = 0.056875

Courant Number mean: 0.0914141 max: 0.597205
smoothSolver:  Solving for Ux, Initial residual = 0.00214364, Final residual = 5.70341e-06, No Iterations 5
smoothSolver:  Solving for Uy, Initial residual = 0.00252904, Final residual = 6.9334e-06, No Iterations 5
DICPCG:  Solving for p, Initial residual = 0.0018375, Final residual = 8.73718e-05, No Iterations 90
time step continuity errors : sum local = 9.97633e-09, global = -4.26682e-20, cumulative = 7.92724e-19
DICPCG:  Solving for p, Initial residual = 0.00127712, Final residual = 9.24508e-07, No Iterations 210
time step continuity errors : sum local = 9.10161e-11, global = -7.44574e-21, cumulative = 7.85278e-19
ExecutionTime = 12.01 s  ClockTime = 13 s

Time = 0.0575

Courant Number mean: 0.0917826 max: 0.597336
smoothSolver:  Solving for Ux, Initial residual = 0.00211741, Final residual = 5.63431e-06, No Iterations 5
smoothSolver:  Solving for Uy, Initial residual = 0.00250402, Final residual = 6.86443e-06, No Iterations 5
DICPCG:  Solving for p, Initial residual = 0.0018373, Final residual = 8.62641e-05, No Iterations 89
time step continuity errors : sum local = 8.86999e-09, global = 2.18384e-20, cumulative = 8.07117e-19
DICPCG:  Solving for p, Initial residual = 0.00127883, Final residual = 9.53195e-07, No Iterations 210
time step continuity errors : sum local = 9.38698e-11, global = -1.5899e-19, cumulative = 6.48127e-19
ExecutionTime = 12.12 s  ClockTime = 13 s

Time = 0.058125

Courant Number mean: 0.0921477 max: 0.597464
smoothSolver:  Solving for Ux, Initial residual = 0.00209373, Final residual = 5.57327e-06, No Iterations 5
smoothSolver:  Solving for Uy, Initial residual = 0.00247527, Final residual = 6.7848e-06, No Iterations 5
DICPCG:  Solving for p, Initial residual = 0.00178616, Final residual = 8.92395e-05, No Iterations 155
time step continuity errors : sum local = 8.80745e-09, global = 6.70148e-20, cumulative = 7.15142e-19
DICPCG:  Solving for p, Initial residual = 0.00125553, Final residual = 9.07619e-07, No Iterations 210
time step continuity errors : sum local = 8.93911e-11, global = 6.9883e-20, cumulative = 7.85025e-19
ExecutionTime = 12.25 s  ClockTime = 13 s

Time = 0.05875

Courant Number mean: 0.0925093 max: 0.597591
smoothSolver:  Solving for Ux, Initial residual = 0.00206903, Final residual = 5.50897e-06, No Iterations 5
smoothSolver:  Solving for Uy, Initial residual = 0.00245067, Final residual = 6.71725e-06, No Iterations 5
DICPCG:  Solving for p, Initial residual = 0.00177947, Final residual = 8.40266e-05, No Iterations 90
time step continuity errors : sum local = 9.58733e-09, global = 2.31288e-20, cumulative = 8.08153e-19
DICPCG:  Solving for p, Initial residual = 0.00124497, Final residual = 9.45819e-07, No Iterations 210
time step continuity errors : sum local = 9.32109e-11, global = 3.46502e-20, cumulative = 8.42804e-19
ExecutionTime = 12.36 s  ClockTime = 13 s

Time = 0.059375

Courant Number mean: 0.0928674 max: 0.597715
smoothSolver:  Solving for Ux, Initial residual = 0.00204445, Final residual = 5.44458e-06, No Iterations 5
smoothSolver:  Solving for Uy, Initial residual = 0.00242732, Final residual = 6.65292e-06, No Iterations 5
DICPCG:  Solving for p, Initial residual = 0.00177999, Final residual = 8.41487e-05, No Iterations 89
time step continuity errors : sum local = 8.63923e-09, global = -1.55565e-20, cumulative = 8.27247e-19
DICPCG:  Solving for p, Initial residual = 0.00124362, Final residual = 9.337e-07, No Iterations 210
time step continuity errors : sum local = 9.20235e-11, global = -7.60739e-20, cumulative = 7.51173e-19
ExecutionTime = 12.47 s  ClockTime = 13 s

Time = 0.06

Courant Number mean: 0.093223 max: 0.597838
smoothSolver:  Solving for Ux, Initial residual = 0.00202231, Final residual = 5.38738e-06, No Iterations 5
smoothSolver:  Solving for Uy, Initial residual = 0.00240051, Final residual = 6.57867e-06, No Iterations 5
DICPCG:  Solving for p, Initial residual = 0.00173813, Final residual = 7.72223e-05, No Iterations 156
time step continuity errors : sum local = 7.62926e-09, global = 1.13602e-19, cumulative = 8.64776e-19
DICPCG:  Solving for p, Initial residual = 0.00121775, Final residual = 9.01676e-07, No Iterations 210
time step continuity errors : sum local = 8.89112e-11, global = 1.59702e-20, cumulative = 8.80746e-19
ExecutionTime = 12.6 s  ClockTime = 13 s

Time = 0.060625

Courant Number mean: 0.0935767 max: 0.597959
smoothSolver:  Solving for Ux, Initial residual = 0.00199922, Final residual = 5.32698e-06, No Iterations 5
smoothSolver:  Solving for Uy, Initial residual = 0.00237753, Final residual = 6.51557e-06, No Iterations 5
DICPCG:  Solving for p, Initial residual = 0.00172988, Final residual = 8.09221e-05, No Iterations 90
time step continuity errors : sum local = 9.23709e-09, global = 1.24007e-21, cumulative = 8.81986e-19
DICPCG:  Solving for p, Initial residual = 0.00121122, Final residual = 9.06202e-07, No Iterations 210
time step continuity errors : sum local = 8.93903e-11, global = -5.19342e-21, cumulative = 8.76793e-19
ExecutionTime = 12.71 s  ClockTime = 13 s

Time = 0.06125

Courant Number mean: 0.0939276 max: 0.598078
smoothSolver:  Solving for Ux, Initial residual = 0.00197622, Final residual = 5.26637e-06, No Iterations 5
smoothSolver:  Solving for Uy, Initial residual = 0.00235566, Final residual = 6.45534e-06, No Iterations 5
DICPCG:  Solving for p, Initial residual = 0.00173368, Final residual = 8.00954e-05, No Iterations 89
time step continuity errors : sum local = 8.23158e-09, global = 1.43698e-20, cumulative = 8.91162e-19
DICPCG:  Solving for p, Initial residual = 0.00121077, Final residual = 8.967e-07, No Iterations 210
time step continuity errors : sum local = 8.84452e-11, global = 5.07871e-20, cumulative = 9.41949e-19
ExecutionTime = 12.82 s  ClockTime = 14 s

Time = 0.061875

Courant Number mean: 0.0942757 max: 0.598195
smoothSolver:  Solving for Ux, Initial residual = 0.00195537, Final residual = 5.21232e-06, No Iterations 5
smoothSolver:  Solving for Uy, Initial residual = 0.00233059, Final residual = 6.38588e-06, No Iterations 5
DICPCG:  Solving for p, Initial residual = 0.00169557, Final residual = 8.33899e-05, No Iterations 94
time step continuity errors : sum local = 9.9715e-09, global = -8.08274e-20, cumulative = 8.61122e-19
DICPCG:  Solving for p, Initial residual = 0.00119564, Final residual = 9.45143e-07, No Iterations 209
time step continuity errors : sum local = 9.32844e-11, global = -3.39475e-20, cumulative = 8.27175e-19
ExecutionTime = 12.93 s  ClockTime = 14 s

Time = 0.0625

Courant Number mean: 0.094621 max: 0.598311
smoothSolver:  Solving for Ux, Initial residual = 0.0019327, Final residual = 5.15218e-06, No Iterations 5
smoothSolver:  Solving for Uy, Initial residual = 0.00231165, Final residual = 6.33377e-06, No Iterations 5
DICPCG:  Solving for p, Initial residual = 0.00174082, Final residual = 7.67445e-05, No Iterations 90
time step continuity errors : sum local = 8.62065e-09, global = 1.37089e-20, cumulative = 8.40884e-19
DICPCG:  Solving for p, Initial residual = 0.00119495, Final residual = 9.6755e-07, No Iterations 209
time step continuity errors : sum local = 9.54692e-11, global = 2.98484e-20, cumulative = 8.70732e-19
ExecutionTime = 13.04 s  ClockTime = 14 s

Time = 0.063125

Courant Number mean: 0.0949634 max: 0.598425
smoothSolver:  Solving for Ux, Initial residual = 0.00191351, Final residual = 5.10266e-06, No Iterations 5
smoothSolver:  Solving for Uy, Initial residual = 0.00228565, Final residual = 6.26134e-06, No Iterations 5
DICPCG:  Solving for p, Initial residual = 0.00167993, Final residual = 8.03446e-05, No Iterations 156
time step continuity errors : sum local = 7.94237e-09, global = -4.23427e-20, cumulative = 8.28389e-19
DICPCG:  Solving for p, Initial residual = 0.00118263, Final residual = 9.25096e-07, No Iterations 204
time step continuity errors : sum local = 9.14419e-11, global = -1.83791e-20, cumulative = 8.1001e-19
ExecutionTime = 13.17 s  ClockTime = 14 s

Time = 0.06375

Courant Number mean: 0.0953031 max: 0.598537
smoothSolver:  Solving for Ux, Initial residual = 0.00189196, Final residual = 5.0459e-06, No Iterations 5
smoothSolver:  Solving for Uy, Initial residual = 0.00226581, Final residual = 6.20743e-06, No Iterations 5
DICPCG:  Solving for p, Initial residual = 0.00166464, Final residual = 7.45301e-05, No Iterations 90
time step continuity errors : sum local = 8.52718e-09, global = -9.15578e-20, cumulative = 7.18452e-19
DICPCG:  Solving for p, Initial residual = 0.00116376, Final residual = 9.31173e-07, No Iterations 204
time step continuity errors : sum local = 9.1938e-11, global = -3.31694e-21, cumulative = 7.15135e-19
ExecutionTime = 13.28 s  ClockTime = 14 s

Time = 0.064375

Courant Number mean: 0.0956399 max: 0.598648
smoothSolver:  Solving for Ux, Initial residual = 0.00187111, Final residual = 4.99098e-06, No Iterations 5
smoothSolver:  Solving for Uy, Initial residual = 0.00224619, Final residual = 6.15337e-06, No Iterations 5
DICPCG:  Solving for p, Initial residual = 0.00166407, Final residual = 7.46458e-05, No Iterations 89
time step continuity errors : sum local = 7.66387e-09, global = -7.97091e-21, cumulative = 7.07165e-19
DICPCG:  Solving for p, Initial residual = 0.0011624, Final residual = 9.8655e-07, No Iterations 208
time step continuity errors : sum local = 9.74172e-11, global = 1.3236e-19, cumulative = 8.39525e-19
ExecutionTime = 13.39 s  ClockTime = 14 s

Time = 0.065

Courant Number mean: 0.0959738 max: 0.598757
smoothSolver:  Solving for Ux, Initial residual = 0.00185213, Final residual = 4.94197e-06, No Iterations 5
smoothSolver:  Solving for Uy, Initial residual = 0.0022237, Final residual = 6.0911e-06, No Iterations 5
DICPCG:  Solving for p, Initial residual = 0.00162761, Final residual = 7.85925e-05, No Iterations 94
time step continuity errors : sum local = 9.38015e-09, global = -2.51487e-20, cumulative = 8.14376e-19
DICPCG:  Solving for p, Initial residual = 0.00114805, Final residual = 9.0928e-07, No Iterations 202
time step continuity errors : sum local = 8.97963e-11, global = 1.9268e-20, cumulative = 8.33644e-19
ExecutionTime = 13.5 s  ClockTime = 14 s

Time = 0.065625

Courant Number mean: 0.0963048 max: 0.598865
smoothSolver:  Solving for Ux, Initial residual = 0.0018316, Final residual = 4.88771e-06, No Iterations 5
smoothSolver:  Solving for Uy, Initial residual = 0.00220657, Final residual = 6.04403e-06, No Iterations 5
DICPCG:  Solving for p, Initial residual = 0.00166859, Final residual = 8.16277e-05, No Iterations 89
time step continuity errors : sum local = 9.00864e-09, global = -2.36679e-20, cumulative = 8.09976e-19
DICPCG:  Solving for p, Initial residual = 0.00115049, Final residual = 9.93541e-07, No Iterations 207
time step continuity errors : sum local = 9.81754e-11, global = -9.14769e-21, cumulative = 8.00828e-19
ExecutionTime = 13.61 s  ClockTime = 14 s

Time = 0.06625

Courant Number mean: 0.096633 max: 0.598972
smoothSolver:  Solving for Ux, Initial residual = 0.00181416, Final residual = 4.8428e-06, No Iterations 5
smoothSolver:  Solving for Uy, Initial residual = 0.00218324, Final residual = 5.97901e-06, No Iterations 5
DICPCG:  Solving for p, Initial residual = 0.0016192, Final residual = 8.08739e-05, No Iterations 157
time step continuity errors : sum local = 8.0013e-09, global = 1.80443e-21, cumulative = 8.02633e-19
DICPCG:  Solving for p, Initial residual = 0.00114232, Final residual = 9.11136e-07, No Iterations 209
time step continuity errors : sum local = 9.00285e-11, global = -1.59714e-20, cumulative = 7.86662e-19
ExecutionTime = 13.74 s  ClockTime = 14 s

Time = 0.066875

Courant Number mean: 0.0969584 max: 0.599077
smoothSolver:  Solving for Ux, Initial residual = 0.00179467, Final residual = 4.79152e-06, No Iterations 5
smoothSolver:  Solving for Uy, Initial residual = 0.00216536, Final residual = 5.93041e-06, No Iterations 5
DICPCG:  Solving for p, Initial residual = 0.00160377, Final residual = 7.92069e-05, No Iterations 89
time step continuity errors : sum local = 8.93386e-09, global = 3.70534e-20, cumulative = 8.23715e-19
DICPCG:  Solving for p, Initial residual = 0.00112441, Final residual = 9.35872e-07, No Iterations 203
time step continuity errors : sum local = 9.26459e-11, global = -6.30582e-20, cumulative = 7.60657e-19
ExecutionTime = 13.84 s  ClockTime = 15 s

Time = 0.0675

Courant Number mean: 0.0972811 max: 0.59918
smoothSolver:  Solving for Ux, Initial residual = 0.00177583, Final residual = 4.74168e-06, No Iterations 5
smoothSolver:  Solving for Uy, Initial residual = 0.00214756, Final residual = 5.88141e-06, No Iterations 5
DICPCG:  Solving for p, Initial residual = 0.00161389, Final residual = 6.8558e-05, No Iterations 89
time step continuity errors : sum local = 7.04464e-09, global = 1.44463e-19, cumulative = 9.0512e-19
DICPCG:  Solving for p, Initial residual = 0.00112826, Final residual = 8.9152e-07, No Iterations 202
time step continuity errors : sum local = 8.82116e-11, global = -6.18894e-20, cumulative = 8.4323e-19
ExecutionTime = 13.95 s  ClockTime = 15 s

Time = 0.068125

Courant Number mean: 0.0976012 max: 0.599283
smoothSolver:  Solving for Ux, Initial residual = 0.00175865, Final residual = 4.69698e-06, No Iterations 5
smoothSolver:  Solving for Uy, Initial residual = 0.00212728, Final residual = 5.82524e-06, No Iterations 5
DICPCG:  Solving for p, Initial residual = 0.00156864, Final residual = 7.74321e-05, No Iterations 93
[...]
time step continuity errors : sum local = 1.08103e-10, global = -9.43414e-20, cumulative = -1.41612e-18
ExecutionTime = 219.86 s  ClockTime = 224 s

Time = 2.98375

Courant Number mean: 0.179926 max: 0.613492
smoothSolver:  Solving for Ux, Initial residual = 1.40876e-07, Final residual = 1.40876e-07, No Iterations 0
smoothSolver:  Solving for Uy, Initial residual = 2.2419e-07, Final residual = 2.2419e-07, No Iterations 0
DICPCG:  Solving for p, Initial residual = 1.22567e-06, Final residual = 7.16635e-07, No Iterations 14
time step continuity errors : sum local = 8.01972e-11, global = -1.00878e-20, cumulative = -1.42621e-18
DICPCG:  Solving for p, Initial residual = 1.24873e-06, Final residual = 9.98854e-07, No Iterations 8
time step continuity errors : sum local = 1.09772e-10, global = 1.40406e-20, cumulative = -1.41216e-18
ExecutionTime = 219.88 s  ClockTime = 224 s

Time = 2.98437

Courant Number mean: 0.179926 max: 0.613492
smoothSolver:  Solving for Ux, Initial residual = 1.37632e-07, Final residual = 1.37632e-07, No Iterations 0
smoothSolver:  Solving for Uy, Initial residual = 2.37678e-07, Final residual = 2.37678e-07, No Iterations 0
DICPCG:  Solving for p, Initial residual = 1.91501e-06, Final residual = 7.67042e-07, No Iterations 16
time step continuity errors : sum local = 8.5344e-11, global = -5.36555e-20, cumulative = -1.46582e-18
DICPCG:  Solving for p, Initial residual = 1.26996e-06, Final residual = 8.91689e-07, No Iterations 4
time step continuity errors : sum local = 9.87515e-11, global = 1.79772e-20, cumulative = -1.44784e-18
ExecutionTime = 219.89 s  ClockTime = 224 s

Time = 2.985

Courant Number mean: 0.179926 max: 0.613492
smoothSolver:  Solving for Ux, Initial residual = 1.40189e-07, Final residual = 1.40189e-07, No Iterations 0
smoothSolver:  Solving for Uy, Initial residual = 2.22916e-07, Final residual = 2.22916e-07, No Iterations 0
DICPCG:  Solving for p, Initial residual = 1.66787e-06, Final residual = 9.52854e-07, No Iterations 4
time step continuity errors : sum local = 1.05243e-10, global = 9.78841e-20, cumulative = -1.34996e-18
DICPCG:  Solving for p, Initial residual = 1.48712e-06, Final residual = 9.87481e-07, No Iterations 2
time step continuity errors : sum local = 1.09019e-10, global = 1.26819e-19, cumulative = -1.22314e-18
ExecutionTime = 219.9 s  ClockTime = 224 s

Time = 2.98562

Courant Number mean: 0.179926 max: 0.613492
smoothSolver:  Solving for Ux, Initial residual = 1.40053e-07, Final residual = 1.40053e-07, No Iterations 0
smoothSolver:  Solving for Uy, Initial residual = 2.23707e-07, Final residual = 2.23707e-07, No Iterations 0
DICPCG:  Solving for p, Initial residual = 2.02069e-06, Final residual = 9.07364e-07, No Iterations 1
time step continuity errors : sum local = 1.00422e-10, global = -2.31284e-21, cumulative = -1.22545e-18
DICPCG:  Solving for p, Initial residual = 1.22937e-06, Final residual = 8.50597e-07, No Iterations 1
time step continuity errors : sum local = 9.44117e-11, global = -4.65898e-20, cumulative = -1.27204e-18
ExecutionTime = 219.91 s  ClockTime = 224 s

Time = 2.98625

Courant Number mean: 0.179926 max: 0.613492
smoothSolver:  Solving for Ux, Initial residual = 1.39794e-07, Final residual = 1.39794e-07, No Iterations 0
smoothSolver:  Solving for Uy, Initial residual = 2.23382e-07, Final residual = 2.23382e-07, No Iterations 0
DICPCG:  Solving for p, Initial residual = 1.15166e-06, Final residual = 9.98943e-07, No Iterations 1
time step continuity errors : sum local = 1.10262e-10, global = 1.42893e-20, cumulative = -1.25775e-18
DICPCG:  Solving for p, Initial residual = 1.18818e-06, Final residual = 9.78478e-07, No Iterations 9
time step continuity errors : sum local = 1.08449e-10, global = 4.00709e-20, cumulative = -1.21768e-18
ExecutionTime = 219.92 s  ClockTime = 224 s

Time = 2.98687

Courant Number mean: 0.179926 max: 0.613492
smoothSolver:  Solving for Ux, Initial residual = 1.40274e-07, Final residual = 1.40274e-07, No Iterations 0
smoothSolver:  Solving for Uy, Initial residual = 2.33166e-07, Final residual = 2.33166e-07, No Iterations 0
DICPCG:  Solving for p, Initial residual = 1.95372e-06, Final residual = 8.73261e-07, No Iterations 13
time step continuity errors : sum local = 9.68583e-11, global = 9.97154e-20, cumulative = -1.11797e-18
DICPCG:  Solving for p, Initial residual = 1.44854e-06, Final residual = 8.81027e-07, No Iterations 7
time step continuity errors : sum local = 9.76854e-11, global = 7.91234e-20, cumulative = -1.03884e-18
ExecutionTime = 219.94 s  ClockTime = 225 s

Time = 2.9875

Courant Number mean: 0.179926 max: 0.613492
smoothSolver:  Solving for Ux, Initial residual = 1.37551e-07, Final residual = 1.37551e-07, No Iterations 0
smoothSolver:  Solving for Uy, Initial residual = 2.3075e-07, Final residual = 2.3075e-07, No Iterations 0
DICPCG:  Solving for p, Initial residual = 1.73284e-06, Final residual = 7.81129e-07, No Iterations 14
time step continuity errors : sum local = 8.72442e-11, global = 6.87742e-20, cumulative = -9.70069e-19
DICPCG:  Solving for p, Initial residual = 1.20836e-06, Final residual = 8.43536e-07, No Iterations 2
time step continuity errors : sum local = 9.40702e-11, global = 1.23677e-19, cumulative = -8.46392e-19
ExecutionTime = 219.95 s  ClockTime = 225 s

Time = 2.98812

Courant Number mean: 0.179927 max: 0.613492
smoothSolver:  Solving for Ux, Initial residual = 1.39222e-07, Final residual = 1.39222e-07, No Iterations 0
smoothSolver:  Solving for Uy, Initial residual = 2.2265e-07, Final residual = 2.2265e-07, No Iterations 0
DICPCG:  Solving for p, Initial residual = 1.64179e-06, Final residual = 9.57996e-07, No Iterations 5
time step continuity errors : sum local = 1.0604e-10, global = 4.30415e-20, cumulative = -8.0335e-19
DICPCG:  Solving for p, Initial residual = 1.43734e-06, Final residual = 9.93978e-07, No Iterations 1
time step continuity errors : sum local = 1.09812e-10, global = 2.87017e-21, cumulative = -8.0048e-19
ExecutionTime = 219.96 s  ClockTime = 225 s

Time = 2.98875

Courant Number mean: 0.179927 max: 0.613492
smoothSolver:  Solving for Ux, Initial residual = 1.3943e-07, Final residual = 1.3943e-07, No Iterations 0
smoothSolver:  Solving for Uy, Initial residual = 2.226e-07, Final residual = 2.226e-07, No Iterations 0
DICPCG:  Solving for p, Initial residual = 1.7352e-06, Final residual = 9.21844e-07, No Iterations 5
time step continuity errors : sum local = 1.01928e-10, global = 1.86611e-20, cumulative = -7.81819e-19
DICPCG:  Solving for p, Initial residual = 1.55945e-06, Final residual = 8.54823e-07, No Iterations 3
time step continuity errors : sum local = 9.50073e-11, global = -8.10926e-21, cumulative = -7.89928e-19
ExecutionTime = 219.97 s  ClockTime = 225 s

Time = 2.98937

Courant Number mean: 0.179927 max: 0.613492
smoothSolver:  Solving for Ux, Initial residual = 1.38516e-07, Final residual = 1.38516e-07, No Iterations 0
smoothSolver:  Solving for Uy, Initial residual = 2.22967e-07, Final residual = 2.22967e-07, No Iterations 0
DICPCG:  Solving for p, Initial residual = 1.70525e-06, Final residual = 9.93952e-07, No Iterations 1
time step continuity errors : sum local = 1.0981e-10, global = 2.93892e-21, cumulative = -7.86989e-19
DICPCG:  Solving for p, Initial residual = 1.39037e-06, Final residual = 7.7498e-07, No Iterations 1
time step continuity errors : sum local = 8.65233e-11, global = 3.10671e-20, cumulative = -7.55922e-19
ExecutionTime = 219.98 s  ClockTime = 225 s

Time = 2.99

Courant Number mean: 0.179927 max: 0.613492
smoothSolver:  Solving for Ux, Initial residual = 1.38252e-07, Final residual = 1.38252e-07, No Iterations 0
smoothSolver:  Solving for Uy, Initial residual = 2.22635e-07, Final residual = 2.22635e-07, No Iterations 0
DICPCG:  Solving for p, Initial residual = 1.08461e-06, Final residual = 9.83446e-07, No Iterations 6
time step continuity errors : sum local = 1.08642e-10, global = 9.5268e-20, cumulative = -6.60654e-19
DICPCG:  Solving for p, Initial residual = 1.54907e-06, Final residual = 7.6102e-07, No Iterations 5
time step continuity errors : sum local = 8.49173e-11, global = 1.60029e-20, cumulative = -6.44651e-19
ExecutionTime = 219.99 s  ClockTime = 225 s

Time = 2.99062

Courant Number mean: 0.179927 max: 0.613492
smoothSolver:  Solving for Ux, Initial residual = 1.37577e-07, Final residual = 1.37577e-07, No Iterations 0
smoothSolver:  Solving for Uy, Initial residual = 2.24713e-07, Final residual = 2.24713e-07, No Iterations 0
DICPCG:  Solving for p, Initial residual = 1.36345e-06, Final residual = 5.98895e-07, No Iterations 3
time step continuity errors : sum local = 6.75433e-11, global = -9.06181e-21, cumulative = -6.53713e-19
DICPCG:  Solving for p, Initial residual = 9.645e-07, Final residual = 9.645e-07, No Iterations 0
time step continuity errors : sum local = 1.06415e-10, global = -1.29984e-19, cumulative = -7.83697e-19
ExecutionTime = 220 s  ClockTime = 225 s

Time = 2.99125

Courant Number mean: 0.179927 max: 0.613492
smoothSolver:  Solving for Ux, Initial residual = 1.37213e-07, Final residual = 1.37213e-07, No Iterations 0
smoothSolver:  Solving for Uy, Initial residual = 2.24207e-07, Final residual = 2.24207e-07, No Iterations 0
DICPCG:  Solving for p, Initial residual = 1.59195e-06, Final residual = 9.87633e-07, No Iterations 1
time step continuity errors : sum local = 1.08755e-10, global = 4.66021e-20, cumulative = -7.37095e-19
DICPCG:  Solving for p, Initial residual = 1.42334e-06, Final residual = 7.98006e-07, No Iterations 1
time step continuity errors : sum local = 8.86597e-11, global = 5.48224e-20, cumulative = -6.82272e-19
ExecutionTime = 220.01 s  ClockTime = 225 s

Time = 2.99187

Courant Number mean: 0.179927 max: 0.613492
smoothSolver:  Solving for Ux, Initial residual = 1.36997e-07, Final residual = 1.36997e-07, No Iterations 0
smoothSolver:  Solving for Uy, Initial residual = 2.24196e-07, Final residual = 2.24196e-07, No Iterations 0
DICPCG:  Solving for p, Initial residual = 1.1213e-06, Final residual = 8.6923e-07, No Iterations 1
time step continuity errors : sum local = 9.63122e-11, global = 8.64922e-20, cumulative = -5.9578e-19
DICPCG:  Solving for p, Initial residual = 1.01094e-06, Final residual = 8.48966e-07, No Iterations 1
time step continuity errors : sum local = 9.41531e-11, global = -1.4198e-19, cumulative = -7.3776e-19
ExecutionTime = 220.02 s  ClockTime = 225 s

Time = 2.9925

Courant Number mean: 0.179927 max: 0.613492
smoothSolver:  Solving for Ux, Initial residual = 1.36781e-07, Final residual = 1.36781e-07, No Iterations 0
smoothSolver:  Solving for Uy, Initial residual = 2.24018e-07, Final residual = 2.24018e-07, No Iterations 0
DICPCG:  Solving for p, Initial residual = 1.0163e-06, Final residual = 9.30933e-07, No Iterations 1
time step continuity errors : sum local = 1.02899e-10, global = 2.51339e-20, cumulative = -7.12626e-19
DICPCG:  Solving for p, Initial residual = 1.06569e-06, Final residual = 9.84502e-07, No Iterations 1
time step continuity errors : sum local = 1.08587e-10, global = 1.31667e-19, cumulative = -5.80959e-19
ExecutionTime = 220.03 s  ClockTime = 225 s

Time = 2.99312

Courant Number mean: 0.179927 max: 0.613492
smoothSolver:  Solving for Ux, Initial residual = 1.36576e-07, Final residual = 1.36576e-07, No Iterations 0
smoothSolver:  Solving for Uy, Initial residual = 2.23889e-07, Final residual = 2.23889e-07, No Iterations 0
DICPCG:  Solving for p, Initial residual = 1.17965e-06, Final residual = 8.67727e-07, No Iterations 12
time step continuity errors : sum local = 9.55339e-11, global = 7.09925e-20, cumulative = -5.09966e-19
DICPCG:  Solving for p, Initial residual = 1.44565e-06, Final residual = 9.87822e-07, No Iterations 9
time step continuity errors : sum local = 1.09032e-10, global = 1.22037e-19, cumulative = -3.87929e-19
ExecutionTime = 220.05 s  ClockTime = 225 s

Time = 2.99375

Courant Number mean: 0.179927 max: 0.613492
smoothSolver:  Solving for Ux, Initial residual = 1.38992e-07, Final residual = 1.38992e-07, No Iterations 0
smoothSolver:  Solving for Uy, Initial residual = 2.16681e-07, Final residual = 2.16681e-07, No Iterations 0
DICPCG:  Solving for p, Initial residual = 1.92396e-06, Final residual = 9.65814e-07, No Iterations 17
time step continuity errors : sum local = 1.07016e-10, global = -9.7177e-20, cumulative = -4.85106e-19
DICPCG:  Solving for p, Initial residual = 1.50865e-06, Final residual = 9.4887e-07, No Iterations 5
time step continuity errors : sum local = 1.05092e-10, global = -9.99019e-20, cumulative = -5.85008e-19
ExecutionTime = 220.06 s  ClockTime = 225 s

Time = 2.99437

Courant Number mean: 0.179927 max: 0.613492
smoothSolver:  Solving for Ux, Initial residual = 1.37218e-07, Final residual = 1.37218e-07, No Iterations 0
smoothSolver:  Solving for Uy, Initial residual = 2.23646e-07, Final residual = 2.23646e-07, No Iterations 0
DICPCG:  Solving for p, Initial residual = 1.74162e-06, Final residual = 9.22189e-07, No Iterations 9
time step continuity errors : sum local = 1.02765e-10, global = 3.89324e-20, cumulative = -5.46076e-19
DICPCG:  Solving for p, Initial residual = 1.45637e-06, Final residual = 9.13175e-07, No Iterations 2
time step continuity errors : sum local = 1.01954e-10, global = -6.39178e-20, cumulative = -6.09994e-19
ExecutionTime = 220.07 s  ClockTime = 225 s

Time = 2.995

Courant Number mean: 0.179927 max: 0.613492
smoothSolver:  Solving for Ux, Initial residual = 1.36712e-07, Final residual = 1.36712e-07, No Iterations 0
smoothSolver:  Solving for Uy, Initial residual = 2.21245e-07, Final residual = 2.21245e-07, No Iterations 0
DICPCG:  Solving for p, Initial residual = 1.82557e-06, Final residual = 9.3232e-07, No Iterations 9
time step continuity errors : sum local = 1.03561e-10, global = -3.33145e-20, cumulative = -6.43308e-19
DICPCG:  Solving for p, Initial residual = 1.51666e-06, Final residual = 8.35732e-07, No Iterations 5
time step continuity errors : sum local = 9.31032e-11, global = -1.46472e-20, cumulative = -6.57955e-19
ExecutionTime = 220.08 s  ClockTime = 225 s

Time = 2.99562

Courant Number mean: 0.179927 max: 0.613492
smoothSolver:  Solving for Ux, Initial residual = 1.36185e-07, Final residual = 1.36185e-07, No Iterations 0
smoothSolver:  Solving for Uy, Initial residual = 2.22019e-07, Final residual = 2.22019e-07, No Iterations 0
DICPCG:  Solving for p, Initial residual = 1.59872e-06, Final residual = 7.15767e-07, No Iterations 3
time step continuity errors : sum local = 8.01304e-11, global = -1.1086e-19, cumulative = -7.68815e-19
DICPCG:  Solving for p, Initial residual = 1.20271e-06, Final residual = 8.40964e-07, No Iterations 1
time step continuity errors : sum local = 9.34307e-11, global = 6.90504e-20, cumulative = -6.99765e-19
ExecutionTime = 220.09 s  ClockTime = 225 s

Time = 2.99625

Courant Number mean: 0.179927 max: 0.613492
smoothSolver:  Solving for Ux, Initial residual = 1.36026e-07, Final residual = 1.36026e-07, No Iterations 0
smoothSolver:  Solving for Uy, Initial residual = 2.20845e-07, Final residual = 2.20845e-07, No Iterations 0
DICPCG:  Solving for p, Initial residual = 1.40915e-06, Final residual = 8.82678e-07, No Iterations 1
time step continuity errors : sum local = 9.79329e-11, global = 1.15515e-20, cumulative = -6.88213e-19
DICPCG:  Solving for p, Initial residual = 1.12595e-06, Final residual = 9.93979e-07, No Iterations 1
time step continuity errors : sum local = 1.09768e-10, global = -3.22313e-21, cumulative = -6.91437e-19
ExecutionTime = 220.1 s  ClockTime = 225 s

Time = 2.99687

Courant Number mean: 0.179927 max: 0.613492
smoothSolver:  Solving for Ux, Initial residual = 1.35803e-07, Final residual = 1.35803e-07, No Iterations 0
smoothSolver:  Solving for Uy, Initial residual = 2.20533e-07, Final residual = 2.20533e-07, No Iterations 0
DICPCG:  Solving for p, Initial residual = 1.20377e-06, Final residual = 9.48871e-07, No Iterations 1
time step continuity errors : sum local = 1.04954e-10, global = 4.98357e-20, cumulative = -6.41601e-19
DICPCG:  Solving for p, Initial residual = 1.0917e-06, Final residual = 9.83989e-07, No Iterations 1
time step continuity errors : sum local = 1.08678e-10, global = 5.21373e-20, cumulative = -5.89464e-19
ExecutionTime = 220.11 s  ClockTime = 225 s

Time = 2.9975

Courant Number mean: 0.179927 max: 0.613492
smoothSolver:  Solving for Ux, Initial residual = 1.35604e-07, Final residual = 1.35604e-07, No Iterations 0
smoothSolver:  Solving for Uy, Initial residual = 2.20227e-07, Final residual = 2.20227e-07, No Iterations 0
DICPCG:  Solving for p, Initial residual = 1.12894e-06, Final residual = 9.0402e-07, No Iterations 5
time step continuity errors : sum local = 1.00385e-10, global = 2.70017e-20, cumulative = -5.62462e-19
DICPCG:  Solving for p, Initial residual = 1.58096e-06, Final residual = 9.48178e-07, No Iterations 4
time step continuity errors : sum local = 1.05207e-10, global = -1.24243e-20, cumulative = -5.74886e-19
ExecutionTime = 220.12 s  ClockTime = 225 s

Time = 2.99812

Courant Number mean: 0.179927 max: 0.613492
smoothSolver:  Solving for Ux, Initial residual = 1.36088e-07, Final residual = 1.36088e-07, No Iterations 0
smoothSolver:  Solving for Uy, Initial residual = 2.17918e-07, Final residual = 2.17918e-07, No Iterations 0
DICPCG:  Solving for p, Initial residual = 1.86336e-06, Final residual = 7.05745e-07, No Iterations 8
time step continuity errors : sum local = 7.92263e-11, global = 9.60401e-22, cumulative = -5.73926e-19
DICPCG:  Solving for p, Initial residual = 1.25754e-06, Final residual = 9.82034e-07, No Iterations 1
time step continuity errors : sum local = 1.0849e-10, global = -2.01604e-22, cumulative = -5.74127e-19
ExecutionTime = 220.14 s  ClockTime = 225 s

Time = 2.99875

Courant Number mean: 0.179927 max: 0.613492
smoothSolver:  Solving for Ux, Initial residual = 1.35333e-07, Final residual = 1.35333e-07, No Iterations 0
smoothSolver:  Solving for Uy, Initial residual = 2.21666e-07, Final residual = 2.21666e-07, No Iterations 0
DICPCG:  Solving for p, Initial residual = 1.7534e-06, Final residual = 9.84508e-07, No Iterations 4
time step continuity errors : sum local = 1.08666e-10, global = 1.14268e-20, cumulative = -5.62701e-19
DICPCG:  Solving for p, Initial residual = 1.61578e-06, Final residual = 7.30913e-07, No Iterations 3
time step continuity errors : sum local = 8.16324e-11, global = 6.91788e-20, cumulative = -4.93522e-19
ExecutionTime = 220.15 s  ClockTime = 225 s

Time = 2.99937

Courant Number mean: 0.179927 max: 0.613492
smoothSolver:  Solving for Ux, Initial residual = 1.35325e-07, Final residual = 1.35325e-07, No Iterations 0
smoothSolver:  Solving for Uy, Initial residual = 2.18818e-07, Final residual = 2.18818e-07, No Iterations 0
DICPCG:  Solving for p, Initial residual = 1.34959e-06, Final residual = 9.68874e-07, No Iterations 1
time step continuity errors : sum local = 1.0691e-10, global = 3.14348e-20, cumulative = -4.62087e-19
DICPCG:  Solving for p, Initial residual = 1.25894e-06, Final residual = 9.62529e-07, No Iterations 1
time step continuity errors : sum local = 1.06258e-10, global = 5.20289e-20, cumulative = -4.10058e-19
ExecutionTime = 220.15 s  ClockTime = 225 s

Time = 3

Courant Number mean: 0.179927 max: 0.613492
smoothSolver:  Solving for Ux, Initial residual = 1.35068e-07, Final residual = 1.35068e-07, No Iterations 0
smoothSolver:  Solving for Uy, Initial residual = 2.18261e-07, Final residual = 2.18261e-07, No Iterations 0
DICPCG:  Solving for p, Initial residual = 1.25712e-06, Final residual = 6.97214e-07, No Iterations 2
time step continuity errors : sum local = 7.80362e-11, global = 1.00165e-19, cumulative = -3.09893e-19
DICPCG:  Solving for p, Initial residual = 1.22579e-06, Final residual = 8.84648e-07, No Iterations 1
time step continuity errors : sum local = 9.80073e-11, global = -8.02689e-21, cumulative = -3.1792e-19
ExecutionTime = 220.22 s  ClockTime = 225 s

End

