/*---------------------------------------------------------------------------*\
  =========                 |
  \\      /  F ield         | OpenFOAM: The Open Source CFD Toolbox
   \\    /   O peration     | Website:  https://openfoam.org
    \\  /    A nd           | Version:  7
     \\/     M anipulation  |
\*---------------------------------------------------------------------------*/
Build  : 7
Exec   : icoFoam
Date   : Feb 06 2025
Time   : 11:09:25
Host   : "c202-007.frontera.tacc.utexas.edu"
PID    : 46025
I/O    : uncollated
Case   : /work2/10249/ctshep3141/frontera/coe347/of-project-1/cavity-Re-250/100x100
nProcs : 1
sigFpe : Enabling floating point exception trapping (FOAM_SIGFPE).
fileModificationChecking : Monitoring run-time modified files using timeStampMaster (fileModificationSkew 10)
allowSystemOperations : Allowing user-supplied system call operations

// * * * * * * * * * * * * * * * * * * * * * * * * * * * * * * * * * * * * * //
Create time

Create mesh for time = 0

Reading transportProperties

Reading field p

Reading field U

Reading/calculating face flux field phi


Starting time loop

Time = 0.0005

Courant Number mean: 0 max: 0
smoothSolver:  Solving for Ux, Initial residual = 1, Final residual = 8.94388e-06, No Iterations 44
smoothSolver:  Solving for Uy, Initial residual = 0, Final residual = 0, No Iterations 0
DICPCG:  Solving for p, Initial residual = 1, Final residual = 0.0434696, No Iterations 121
time step continuity errors : sum local = 9.49602e-06, global = -1.6486e-20, cumulative = -1.6486e-20
DICPCG:  Solving for p, Initial residual = 0.630038, Final residual = 9.568e-07, No Iterations 174
time step continuity errors : sum local = 3.32247e-10, global = -3.63242e-20, cumulative = -5.28102e-20
ExecutionTime = 0.12 s  ClockTime = 1 s

Time = 0.001

Courant Number mean: 0.0221422 max: 0.378841
smoothSolver:  Solving for Ux, Initial residual = 0.139432, Final residual = 9.29508e-06, No Iterations 45
smoothSolver:  Solving for Uy, Initial residual = 0.339131, Final residual = 8.39313e-06, No Iterations 52
DICPCG:  Solving for p, Initial residual = 0.623597, Final residual = 0.0306684, No Iterations 70
time step continuity errors : sum local = 1.21161e-05, global = 4.38892e-20, cumulative = -8.92098e-21
DICPCG:  Solving for p, Initial residual = 0.557457, Final residual = 9.68589e-07, No Iterations 172
time step continuity errors : sum local = 3.40688e-10, global = -5.06445e-20, cumulative = -5.95655e-20
ExecutionTime = 0.19 s  ClockTime = 1 s

Time = 0.0015

Courant Number mean: 0.0335216 max: 0.439972
smoothSolver:  Solving for Ux, Initial residual = 0.0508449, Final residual = 8.25294e-06, No Iterations 40
smoothSolver:  Solving for Uy, Initial residual = 0.145206, Final residual = 8.82032e-06, No Iterations 48
DICPCG:  Solving for p, Initial residual = 0.557078, Final residual = 0.0242196, No Iterations 95
time step continuity errors : sum local = 7.4885e-06, global = -7.08687e-21, cumulative = -6.66524e-20
DICPCG:  Solving for p, Initial residual = 0.379448, Final residual = 9.45271e-07, No Iterations 161
time step continuity errors : sum local = 3.89468e-10, global = 8.94528e-20, cumulative = 2.28004e-20
ExecutionTime = 0.25 s  ClockTime = 1 s

Time = 0.002

Courant Number mean: 0.0405694 max: 0.453087
smoothSolver:  Solving for Ux, Initial residual = 0.0358372, Final residual = 9.60014e-06, No Iterations 39
smoothSolver:  Solving for Uy, Initial residual = 0.0805527, Final residual = 8.99902e-06, No Iterations 45
DICPCG:  Solving for p, Initial residual = 0.329625, Final residual = 0.0159717, No Iterations 110
time step continuity errors : sum local = 3.8956e-06, global = -6.14637e-20, cumulative = -3.86633e-20
DICPCG:  Solving for p, Initial residual = 0.267337, Final residual = 8.90538e-07, No Iterations 161
time step continuity errors : sum local = 2.38272e-10, global = 7.84555e-21, cumulative = -3.08177e-20
ExecutionTime = 0.32 s  ClockTime = 1 s

Time = 0.0025

Courant Number mean: 0.0459871 max: 0.459889
smoothSolver:  Solving for Ux, Initial residual = 0.0242173, Final residual = 8.42059e-06, No Iterations 38
smoothSolver:  Solving for Uy, Initial residual = 0.0532734, Final residual = 8.53288e-06, No Iterations 44
DICPCG:  Solving for p, Initial residual = 0.191228, Final residual = 0.00940941, No Iterations 54
time step continuity errors : sum local = 2.18996e-06, global = -3.56225e-20, cumulative = -6.64403e-20
DICPCG:  Solving for p, Initial residual = 0.170223, Final residual = 8.95589e-07, No Iterations 162
time step continuity errors : sum local = 1.83861e-10, global = 3.6478e-20, cumulative = -2.99623e-20
ExecutionTime = 0.39 s  ClockTime = 1 s

Time = 0.003

Courant Number mean: 0.0504371 max: 0.46402
smoothSolver:  Solving for Ux, Initial residual = 0.0202112, Final residual = 9.54133e-06, No Iterations 37
smoothSolver:  Solving for Uy, Initial residual = 0.041792, Final residual = 9.97174e-06, No Iterations 42
DICPCG:  Solving for p, Initial residual = 0.114274, Final residual = 0.00503724, No Iterations 117
time step continuity errors : sum local = 9.84726e-07, global = 1.71599e-20, cumulative = -1.28024e-20
DICPCG:  Solving for p, Initial residual = 0.0945634, Final residual = 9.71925e-07, No Iterations 157
time step continuity errors : sum local = 2.09354e-10, global = 1.83385e-21, cumulative = -1.09686e-20
ExecutionTime = 0.45 s  ClockTime = 1 s

Time = 0.0035

Courant Number mean: 0.0542244 max: 0.467008
smoothSolver:  Solving for Ux, Initial residual = 0.0158899, Final residual = 9.31228e-06, No Iterations 36
smoothSolver:  Solving for Uy, Initial residual = 0.0349661, Final residual = 8.73293e-06, No Iterations 42
DICPCG:  Solving for p, Initial residual = 0.0698217, Final residual = 0.00340047, No Iterations 109
time step continuity errors : sum local = 6.30946e-07, global = 2.89639e-20, cumulative = 1.79954e-20
DICPCG:  Solving for p, Initial residual = 0.0618965, Final residual = 7.42888e-07, No Iterations 160
time step continuity errors : sum local = 1.40941e-10, global = -6.86447e-20, cumulative = -5.06494e-20
ExecutionTime = 0.52 s  ClockTime = 1 s

Time = 0.004

Courant Number mean: 0.0575178 max: 0.469194
smoothSolver:  Solving for Ux, Initial residual = 0.0134165, Final residual = 8.35661e-06, No Iterations 36
smoothSolver:  Solving for Uy, Initial residual = 0.0286251, Final residual = 8.9829e-06, No Iterations 41
DICPCG:  Solving for p, Initial residual = 0.0437215, Final residual = 0.00195805, No Iterations 115
time step continuity errors : sum local = 3.56127e-07, global = 3.13346e-21, cumulative = -4.75159e-20
DICPCG:  Solving for p, Initial residual = 0.0395671, Final residual = 8.1921e-07, No Iterations 159
time step continuity errors : sum local = 1.49785e-10, global = 4.32527e-20, cumulative = -4.26319e-21
ExecutionTime = 0.59 s  ClockTime = 1 s

Time = 0.0045

Courant Number mean: 0.0604445 max: 0.470911
smoothSolver:  Solving for Ux, Initial residual = 0.0116536, Final residual = 9.19791e-06, No Iterations 35
smoothSolver:  Solving for Uy, Initial residual = 0.0246445, Final residual = 9.58237e-06, No Iterations 40
DICPCG:  Solving for p, Initial residual = 0.0304471, Final residual = 0.00125913, No Iterations 56
time step continuity errors : sum local = 2.26842e-07, global = -3.38856e-20, cumulative = -3.81488e-20
DICPCG:  Solving for p, Initial residual = 0.0280838, Final residual = 8.84145e-07, No Iterations 151
time step continuity errors : sum local = 1.59221e-10, global = -2.7876e-20, cumulative = -6.60248e-20
ExecutionTime = 0.64 s  ClockTime = 1 s

Time = 0.005

Courant Number mean: 0.0630646 max: 0.472301
smoothSolver:  Solving for Ux, Initial residual = 0.0102958, Final residual = 8.37985e-06, No Iterations 35
smoothSolver:  Solving for Uy, Initial residual = 0.0216231, Final residual = 8.49219e-06, No Iterations 40
DICPCG:  Solving for p, Initial residual = 0.0246354, Final residual = 0.00103123, No Iterations 114
time step continuity errors : sum local = 1.85416e-07, global = -3.30496e-20, cumulative = -9.90744e-20
DICPCG:  Solving for p, Initial residual = 0.0227415, Final residual = 7.91507e-07, No Iterations 157
time step continuity errors : sum local = 1.42176e-10, global = 9.62992e-21, cumulative = -8.94445e-20
ExecutionTime = 0.71 s  ClockTime = 1 s

Time = 0.0055

Courant Number mean: 0.0654479 max: 0.473458
smoothSolver:  Solving for Ux, Initial residual = 0.00919688, Final residual = 9.37664e-06, No Iterations 34
smoothSolver:  Solving for Uy, Initial residual = 0.01926, Final residual = 9.27986e-06, No Iterations 39
DICPCG:  Solving for p, Initial residual = 0.0200766, Final residual = 0.000899364, No Iterations 56
time step continuity errors : sum local = 1.80748e-07, global = -1.49609e-20, cumulative = -1.04405e-19
DICPCG:  Solving for p, Initial residual = 0.0187067, Final residual = 9.95802e-07, No Iterations 150
time step continuity errors : sum local = 1.78749e-10, global = -4.57635e-20, cumulative = -1.50169e-19
ExecutionTime = 0.76 s  ClockTime = 1 s

Time = 0.006

Courant Number mean: 0.067622 max: 0.474442
smoothSolver:  Solving for Ux, Initial residual = 0.00825124, Final residual = 8.54461e-06, No Iterations 34
smoothSolver:  Solving for Uy, Initial residual = 0.0175326, Final residual = 8.46962e-06, No Iterations 39
DICPCG:  Solving for p, Initial residual = 0.0200416, Final residual = 0.000998322, No Iterations 111
time step continuity errors : sum local = 1.79145e-07, global = 1.41177e-19, cumulative = -8.99178e-21
DICPCG:  Solving for p, Initial residual = 0.0184642, Final residual = 7.91588e-07, No Iterations 157
time step continuity errors : sum local = 1.42755e-10, global = 7.77974e-21, cumulative = -1.21204e-21
ExecutionTime = 0.83 s  ClockTime = 1 s

Time = 0.0065

Courant Number mean: 0.069624 max: 0.475283
smoothSolver:  Solving for Ux, Initial residual = 0.00754788, Final residual = 9.77234e-06, No Iterations 33
smoothSolver:  Solving for Uy, Initial residual = 0.0157523, Final residual = 9.30139e-06, No Iterations 38
DICPCG:  Solving for p, Initial residual = 0.0165142, Final residual = 0.000824093, No Iterations 114
time step continuity errors : sum local = 1.47744e-07, global = -1.63145e-19, cumulative = -1.64357e-19
DICPCG:  Solving for p, Initial residual = 0.015299, Final residual = 9.64385e-07, No Iterations 151
time step continuity errors : sum local = 1.72982e-10, global = -6.18057e-21, cumulative = -1.70538e-19
ExecutionTime = 0.89 s  ClockTime = 1 s

Time = 0.007

Courant Number mean: 0.0714791 max: 0.476026
smoothSolver:  Solving for Ux, Initial residual = 0.00689292, Final residual = 9.07127e-06, No Iterations 33
smoothSolver:  Solving for Uy, Initial residual = 0.0143614, Final residual = 8.54922e-06, No Iterations 38
DICPCG:  Solving for p, Initial residual = 0.0150488, Final residual = 0.000657414, No Iterations 56
time step continuity errors : sum local = 1.27599e-07, global = -7.16427e-21, cumulative = -1.77702e-19
DICPCG:  Solving for p, Initial residual = 0.0141186, Final residual = 8.64194e-07, No Iterations 152
time step continuity errors : sum local = 1.54753e-10, global = -2.50615e-20, cumulative = -2.02763e-19
ExecutionTime = 0.94 s  ClockTime = 1 s

Time = 0.0075

Courant Number mean: 0.0731978 max: 0.476671
smoothSolver:  Solving for Ux, Initial residual = 0.00631613, Final residual = 8.40682e-06, No Iterations 33
smoothSolver:  Solving for Uy, Initial residual = 0.0132869, Final residual = 9.63143e-06, No Iterations 37
DICPCG:  Solving for p, Initial residual = 0.0139765, Final residual = 0.000636776, No Iterations 111
time step continuity errors : sum local = 1.14098e-07, global = -1.43711e-20, cumulative = -2.17135e-19
DICPCG:  Solving for p, Initial residual = 0.0129549, Final residual = 9.63959e-07, No Iterations 146
time step continuity errors : sum local = 1.73452e-10, global = -1.00801e-19, cumulative = -3.17936e-19
ExecutionTime = 1 s  ClockTime = 2 s

Time = 0.008

Courant Number mean: 0.0748073 max: 0.477244
smoothSolver:  Solving for Ux, Initial residual = 0.00586148, Final residual = 9.67487e-06, No Iterations 32
smoothSolver:  Solving for Uy, Initial residual = 0.0122039, Final residual = 8.87147e-06, No Iterations 37
DICPCG:  Solving for p, Initial residual = 0.0115993, Final residual = 0.000471301, No Iterations 114
time step continuity errors : sum local = 8.45109e-08, global = 1.21418e-20, cumulative = -3.05794e-19
DICPCG:  Solving for p, Initial residual = 0.0108005, Final residual = 9.44402e-07, No Iterations 144
time step continuity errors : sum local = 1.69119e-10, global = 9.65709e-22, cumulative = -3.04828e-19
ExecutionTime = 1.07 s  ClockTime = 2 s

Time = 0.0085

Courant Number mean: 0.0763151 max: 0.477763
smoothSolver:  Solving for Ux, Initial residual = 0.00543441, Final residual = 9.07085e-06, No Iterations 32
smoothSolver:  Solving for Uy, Initial residual = 0.0113085, Final residual = 8.26183e-06, No Iterations 37
DICPCG:  Solving for p, Initial residual = 0.010913, Final residual = 0.000488458, No Iterations 56
time step continuity errors : sum local = 9.61268e-08, global = -5.31139e-20, cumulative = -3.57942e-19
DICPCG:  Solving for p, Initial residual = 0.0102897, Final residual = 8.32544e-07, No Iterations 152
time step continuity errors : sum local = 1.49024e-10, global = -4.49442e-20, cumulative = -4.02886e-19
ExecutionTime = 1.12 s  ClockTime = 2 s

Time = 0.009

Courant Number mean: 0.0777285 max: 0.478226
smoothSolver:  Solving for Ux, Initial residual = 0.00504136, Final residual = 8.47357e-06, No Iterations 32
smoothSolver:  Solving for Uy, Initial residual = 0.0106107, Final residual = 9.42334e-06, No Iterations 36
DICPCG:  Solving for p, Initial residual = 0.0110168, Final residual = 0.000493787, No Iterations 113
time step continuity errors : sum local = 8.85332e-08, global = -1.06151e-20, cumulative = -4.13502e-19
DICPCG:  Solving for p, Initial residual = 0.0102138, Final residual = 9.07335e-07, No Iterations 144
time step continuity errors : sum local = 1.63128e-10, global = -5.39454e-20, cumulative = -4.67447e-19
ExecutionTime = 1.18 s  ClockTime = 2 s

Time = 0.0095

Courant Number mean: 0.0790594 max: 0.478645
smoothSolver:  Solving for Ux, Initial residual = 0.00472981, Final residual = 9.81866e-06, No Iterations 31
smoothSolver:  Solving for Uy, Initial residual = 0.00985404, Final residual = 8.76393e-06, No Iterations 36
DICPCG:  Solving for p, Initial residual = 0.00918593, Final residual = 0.00043453, No Iterations 113
time step continuity errors : sum local = 7.80818e-08, global = -1.00523e-19, cumulative = -5.6797e-19
DICPCG:  Solving for p, Initial residual = 0.00865863, Final residual = 8.34808e-07, No Iterations 151
time step continuity errors : sum local = 1.49815e-10, global = 4.24105e-20, cumulative = -5.2556e-19
ExecutionTime = 1.24 s  ClockTime = 2 s

Time = 0.01

Courant Number mean: 0.0803193 max: 0.479032
smoothSolver:  Solving for Ux, Initial residual = 0.00443008, Final residual = 9.27201e-06, No Iterations 31
smoothSolver:  Solving for Uy, Initial residual = 0.0092235, Final residual = 8.23758e-06, No Iterations 36
DICPCG:  Solving for p, Initial residual = 0.00866655, Final residual = 0.000342304, No Iterations 56
time step continuity errors : sum local = 6.6503e-08, global = -1.2816e-19, cumulative = -6.53719e-19
DICPCG:  Solving for p, Initial residual = 0.00817788, Final residual = 8.46901e-07, No Iterations 150
time step continuity errors : sum local = 1.51749e-10, global = 6.81263e-20, cumulative = -5.85593e-19
ExecutionTime = 1.33 s  ClockTime = 2 s

Time = 0.0105

Courant Number mean: 0.0815113 max: 0.479381
smoothSolver:  Solving for Ux, Initial residual = 0.00414728, Final residual = 8.72935e-06, No Iterations 31
smoothSolver:  Solving for Uy, Initial residual = 0.00871162, Final residual = 9.45719e-06, No Iterations 35
DICPCG:  Solving for p, Initial residual = 0.00876139, Final residual = 0.000417621, No Iterations 113
time step continuity errors : sum local = 7.48236e-08, global = 3.09371e-20, cumulative = -5.54656e-19
DICPCG:  Solving for p, Initial residual = 0.00815283, Final residual = 9.97793e-07, No Iterations 149
time step continuity errors : sum local = 1.79352e-10, global = -5.75705e-20, cumulative = -6.12227e-19
ExecutionTime = 1.39 s  ClockTime = 2 s

Time = 0.011

Courant Number mean: 0.0826391 max: 0.479702
smoothSolver:  Solving for Ux, Initial residual = 0.00391653, Final residual = 8.32071e-06, No Iterations 31
smoothSolver:  Solving for Uy, Initial residual = 0.00817168, Final residual = 8.8766e-06, No Iterations 35
DICPCG:  Solving for p, Initial residual = 0.00734267, Final residual = 0.000308155, No Iterations 113
time step continuity errors : sum local = 5.54247e-08, global = 6.41384e-20, cumulative = -5.48088e-19
DICPCG:  Solving for p, Initial residual = 0.00693604, Final residual = 9.90753e-07, No Iterations 143
time step continuity errors : sum local = 1.77331e-10, global = -8.93439e-20, cumulative = -6.37432e-19
ExecutionTime = 1.45 s  ClockTime = 2 s

Time = 0.0115

Courant Number mean: 0.083709 max: 0.480002
smoothSolver:  Solving for Ux, Initial residual = 0.00369522, Final residual = 9.62932e-06, No Iterations 30
smoothSolver:  Solving for Uy, Initial residual = 0.00770535, Final residual = 8.39539e-06, No Iterations 35
DICPCG:  Solving for p, Initial residual = 0.0069573, Final residual = 0.000276772, No Iterations 56
time step continuity errors : sum local = 5.4319e-08, global = -3.29891e-20, cumulative = -6.70421e-19
DICPCG:  Solving for p, Initial residual = 0.00658438, Final residual = 7.97179e-07, No Iterations 150
time step continuity errors : sum local = 1.43064e-10, global = -9.91043e-20, cumulative = -7.69526e-19
ExecutionTime = 1.5 s  ClockTime = 2 s

Time = 0.012

Courant Number mean: 0.0847296 max: 0.480276
smoothSolver:  Solving for Ux, Initial residual = 0.00348196, Final residual = 9.1056e-06, No Iterations 30
smoothSolver:  Solving for Uy, Initial residual = 0.00732781, Final residual = 9.69844e-06, No Iterations 34
DICPCG:  Solving for p, Initial residual = 0.007299, Final residual = 0.00035896, No Iterations 111
time step continuity errors : sum local = 6.43561e-08, global = -3.84759e-20, cumulative = -8.08001e-19
DICPCG:  Solving for p, Initial residual = 0.00683006, Final residual = 7.72176e-07, No Iterations 143
time step continuity errors : sum local = 1.38709e-10, global = -1.32656e-20, cumulative = -8.21267e-19
ExecutionTime = 1.56 s  ClockTime = 2 s

Time = 0.0125

Courant Number mean: 0.0857015 max: 0.480529
smoothSolver:  Solving for Ux, Initial residual = 0.00330962, Final residual = 8.72198e-06, No Iterations 30
smoothSolver:  Solving for Uy, Initial residual = 0.00691091, Final residual = 9.1491e-06, No Iterations 34
DICPCG:  Solving for p, Initial residual = 0.00634796, Final residual = 0.00024581, No Iterations 113
time step continuity errors : sum local = 4.41004e-08, global = 4.60115e-20, cumulative = -7.75256e-19
DICPCG:  Solving for p, Initial residual = 0.00594101, Final residual = 9.54122e-07, No Iterations 144
time step continuity errors : sum local = 1.71253e-10, global = 5.93906e-22, cumulative = -7.74662e-19
ExecutionTime = 1.62 s  ClockTime = 2 s

Time = 0.013

Courant Number mean: 0.0866273 max: 0.480768
smoothSolver:  Solving for Ux, Initial residual = 0.00313684, Final residual = 8.30896e-06, No Iterations 30
smoothSolver:  Solving for Uy, Initial residual = 0.0065518, Final residual = 8.69679e-06, No Iterations 34
DICPCG:  Solving for p, Initial residual = 0.00576121, Final residual = 0.000246985, No Iterations 56
time step continuity errors : sum local = 4.91668e-08, global = -3.55195e-20, cumulative = -8.10181e-19
DICPCG:  Solving for p, Initial residual = 0.00543935, Final residual = 9.40399e-07, No Iterations 149
time step continuity errors : sum local = 1.68617e-10, global = 6.6699e-20, cumulative = -7.43482e-19
ExecutionTime = 1.67 s  ClockTime = 2 s

Time = 0.0135

Courant Number mean: 0.08751 max: 0.480988
smoothSolver:  Solving for Ux, Initial residual = 0.00296879, Final residual = 9.59903e-06, No Iterations 29
smoothSolver:  Solving for Uy, Initial residual = 0.00626834, Final residual = 8.31086e-06, No Iterations 34
DICPCG:  Solving for p, Initial residual = 0.00630645, Final residual = 0.000302401, No Iterations 108
time step continuity errors : sum local = 5.45086e-08, global = -6.81197e-20, cumulative = -8.11602e-19
DICPCG:  Solving for p, Initial residual = 0.00589688, Final residual = 8.68388e-07, No Iterations 142
time step continuity errors : sum local = 1.56126e-10, global = 1.19001e-19, cumulative = -6.92601e-19
ExecutionTime = 1.73 s  ClockTime = 2 s

Time = 0.014

Courant Number mean: 0.0883523 max: 0.481194
smoothSolver:  Solving for Ux, Initial residual = 0.00283826, Final residual = 9.23831e-06, No Iterations 29
smoothSolver:  Solving for Uy, Initial residual = 0.00592937, Final residual = 9.55811e-06, No Iterations 33
DICPCG:  Solving for p, Initial residual = 0.00558, Final residual = 0.000246499, No Iterations 109
time step continuity errors : sum local = 4.42918e-08, global = 5.97925e-20, cumulative = -6.32808e-19
DICPCG:  Solving for p, Initial residual = 0.00519315, Final residual = 9.01299e-07, No Iterations 148
time step continuity errors : sum local = 1.6161e-10, global = 2.17816e-20, cumulative = -6.11026e-19
ExecutionTime = 1.79 s  ClockTime = 2 s

Time = 0.0145

Courant Number mean: 0.0891608 max: 0.481388
smoothSolver:  Solving for Ux, Initial residual = 0.00269679, Final residual = 8.81519e-06, No Iterations 29
smoothSolver:  Solving for Uy, Initial residual = 0.00564915, Final residual = 9.12603e-06, No Iterations 33
DICPCG:  Solving for p, Initial residual = 0.00474729, Final residual = 0.0002087, No Iterations 56
time step continuity errors : sum local = 4.2312e-08, global = 3.48365e-20, cumulative = -5.7619e-19
DICPCG:  Solving for p, Initial residual = 0.00449246, Final residual = 8.81857e-07, No Iterations 142
time step continuity errors : sum local = 1.58148e-10, global = -6.66406e-20, cumulative = -6.42831e-19
ExecutionTime = 1.84 s  ClockTime = 2 s

Time = 0.015

Courant Number mean: 0.0899358 max: 0.481569
smoothSolver:  Solving for Ux, Initial residual = 0.00256334, Final residual = 8.38722e-06, No Iterations 29
smoothSolver:  Solving for Uy, Initial residual = 0.00542677, Final residual = 8.75335e-06, No Iterations 33
DICPCG:  Solving for p, Initial residual = 0.00547582, Final residual = 0.000242825, No Iterations 114
time step continuity errors : sum local = 4.36717e-08, global = 5.01913e-20, cumulative = -5.92639e-19
DICPCG:  Solving for p, Initial residual = 0.00512827, Final residual = 9.63353e-07, No Iterations 142
time step continuity errors : sum local = 1.73553e-10, global = -1.64617e-20, cumulative = -6.09101e-19
ExecutionTime = 1.9 s  ClockTime = 2 s

Time = 0.0155

Courant Number mean: 0.0906784 max: 0.481738
smoothSolver:  Solving for Ux, Initial residual = 0.0024586, Final residual = 9.85557e-06, No Iterations 28
smoothSolver:  Solving for Uy, Initial residual = 0.00515018, Final residual = 8.30769e-06, No Iterations 33
DICPCG:  Solving for p, Initial residual = 0.00476432, Final residual = 0.000179162, No Iterations 113
time step continuity errors : sum local = 3.22237e-08, global = 3.41945e-20, cumulative = -5.74906e-19
DICPCG:  Solving for p, Initial residual = 0.00447344, Final residual = 8.08826e-07, No Iterations 140
time step continuity errors : sum local = 1.45211e-10, global = -3.6581e-20, cumulative = -6.11487e-19
ExecutionTime = 1.96 s  ClockTime = 2 s

Time = 0.016

Courant Number mean: 0.09139 max: 0.481899
smoothSolver:  Solving for Ux, Initial residual = 0.00234766, Final residual = 9.44312e-06, No Iterations 28
smoothSolver:  Solving for Uy, Initial residual = 0.00491643, Final residual = 9.66405e-06, No Iterations 32
DICPCG:  Solving for p, Initial residual = 0.0042901, Final residual = 0.00016318, No Iterations 56
time step continuity errors : sum local = 3.17338e-08, global = -2.6808e-20, cumulative = -6.38295e-19
DICPCG:  Solving for p, Initial residual = 0.00405046, Final residual = 8.78291e-07, No Iterations 148
time step continuity errors : sum local = 1.57675e-10, global = -2.8241e-20, cumulative = -6.66536e-19
ExecutionTime = 2.01 s  ClockTime = 3 s

Time = 0.0165

Courant Number mean: 0.0920722 max: 0.482048
smoothSolver:  Solving for Ux, Initial residual = 0.00223829, Final residual = 9.01815e-06, No Iterations 28
smoothSolver:  Solving for Uy, Initial residual = 0.00472504, Final residual = 9.28191e-06, No Iterations 32
DICPCG:  Solving for p, Initial residual = 0.00454438, Final residual = 0.00019436, No Iterations 113
time step continuity errors : sum local = 3.48663e-08, global = 5.10567e-20, cumulative = -6.1548e-19
DICPCG:  Solving for p, Initial residual = 0.00425022, Final residual = 9.67353e-07, No Iterations 140
time step continuity errors : sum local = 1.73778e-10, global = -7.89438e-20, cumulative = -6.94424e-19
ExecutionTime = 2.08 s  ClockTime = 3 s

Time = 0.017

Courant Number mean: 0.0927265 max: 0.48219
smoothSolver:  Solving for Ux, Initial residual = 0.00214922, Final residual = 8.69842e-06, No Iterations 28
smoothSolver:  Solving for Uy, Initial residual = 0.0045083, Final residual = 8.85412e-06, No Iterations 32
DICPCG:  Solving for p, Initial residual = 0.00400512, Final residual = 0.000197226, No Iterations 112
time step continuity errors : sum local = 3.5485e-08, global = -4.3537e-20, cumulative = -7.37961e-19
DICPCG:  Solving for p, Initial residual = 0.00376885, Final residual = 8.69903e-07, No Iterations 140
time step continuity errors : sum local = 1.56075e-10, global = -5.72515e-20, cumulative = -7.95212e-19
ExecutionTime = 2.14 s  ClockTime = 3 s

Time = 0.0175

Courant Number mean: 0.0933551 max: 0.482325
smoothSolver:  Solving for Ux, Initial residual = 0.00205875, Final residual = 8.35404e-06, No Iterations 28
smoothSolver:  Solving for Uy, Initial residual = 0.00431742, Final residual = 8.49455e-06, No Iterations 32
DICPCG:  Solving for p, Initial residual = 0.0037246, Final residual = 0.000128586, No Iterations 56
time step continuity errors : sum local = 2.56488e-08, global = 8.3191e-20, cumulative = -7.12021e-19
DICPCG:  Solving for p, Initial residual = 0.00351626, Final residual = 8.35284e-07, No Iterations 147
time step continuity errors : sum local = 1.49934e-10, global = 6.06938e-20, cumulative = -6.51327e-19
ExecutionTime = 2.19 s  ClockTime = 3 s

Time = 0.018

Courant Number mean: 0.0939616 max: 0.482451
smoothSolver:  Solving for Ux, Initial residual = 0.00196753, Final residual = 9.72571e-06, No Iterations 27
smoothSolver:  Solving for Uy, Initial residual = 0.00416276, Final residual = 9.94227e-06, No Iterations 31
DICPCG:  Solving for p, Initial residual = 0.00402785, Final residual = 0.000179747, No Iterations 113
time step continuity errors : sum local = 3.22707e-08, global = 2.25019e-21, cumulative = -6.49077e-19
DICPCG:  Solving for p, Initial residual = 0.00377437, Final residual = 9.66245e-07, No Iterations 140
time step continuity errors : sum local = 1.73691e-10, global = -1.36011e-19, cumulative = -7.85088e-19
ExecutionTime = 2.24 s  ClockTime = 3 s

Time = 0.0185

Courant Number mean: 0.094545 max: 0.48257
smoothSolver:  Solving for Ux, Initial residual = 0.00189483, Final residual = 9.40477e-06, No Iterations 27
smoothSolver:  Solving for Uy, Initial residual = 0.0039783, Final residual = 9.49951e-06, No Iterations 31
DICPCG:  Solving for p, Initial residual = 0.00357036, Final residual = 0.000172646, No Iterations 112
time step continuity errors : sum local = 3.10844e-08, global = 1.30474e-19, cumulative = -6.54613e-19
DICPCG:  Solving for p, Initial residual = 0.00335976, Final residual = 7.64806e-07, No Iterations 139
time step continuity errors : sum local = 1.3753e-10, global = 8.50015e-20, cumulative = -5.69612e-19
ExecutionTime = 2.3 s  ClockTime = 3 s

Time = 0.019

Courant Number mean: 0.095107 max: 0.482684
smoothSolver:  Solving for Ux, Initial residual = 0.0018186, Final residual = 9.04612e-06, No Iterations 27
smoothSolver:  Solving for Uy, Initial residual = 0.003818, Final residual = 9.13378e-06, No Iterations 31
DICPCG:  Solving for p, Initial residual = 0.00330503, Final residual = 0.000112588, No Iterations 56
time step continuity errors : sum local = 2.21349e-08, global = -6.9035e-20, cumulative = -6.38647e-19
DICPCG:  Solving for p, Initial residual = 0.00311428, Final residual = 9.37675e-07, No Iterations 146
time step continuity errors : sum local = 1.68303e-10, global = -1.25599e-19, cumulative = -7.64246e-19
ExecutionTime = 2.35 s  ClockTime = 3 s

Time = 0.0195

Courant Number mean: 0.0956483 max: 0.482792
smoothSolver:  Solving for Ux, Initial residual = 0.00174192, Final residual = 8.67217e-06, No Iterations 27
smoothSolver:  Solving for Uy, Initial residual = 0.0036861, Final residual = 8.81096e-06, No Iterations 31
DICPCG:  Solving for p, Initial residual = 0.00349697, Final residual = 0.000156874, No Iterations 113
time step continuity errors : sum local = 2.81671e-08, global = -9.9109e-20, cumulative = -8.63355e-19
DICPCG:  Solving for p, Initial residual = 0.00327921, Final residual = 9.04456e-07, No Iterations 139
time step continuity errors : sum local = 1.62611e-10, global = -7.65481e-20, cumulative = -9.39903e-19
ExecutionTime = 2.41 s  ClockTime = 3 s

Time = 0.02

Courant Number mean: 0.0961696 max: 0.482894
smoothSolver:  Solving for Ux, Initial residual = 0.00168036, Final residual = 8.39454e-06, No Iterations 27
smoothSolver:  Solving for Uy, Initial residual = 0.00353118, Final residual = 8.43937e-06, No Iterations 31
DICPCG:  Solving for p, Initial residual = 0.00312721, Final residual = 0.000142604, No Iterations 112
time step continuity errors : sum local = 2.56798e-08, global = -6.44192e-20, cumulative = -1.00432e-18
DICPCG:  Solving for p, Initial residual = 0.00294265, Final residual = 8.33722e-07, No Iterations 139
time step continuity errors : sum local = 1.49672e-10, global = 8.18567e-20, cumulative = -9.22466e-19
ExecutionTime = 2.49 s  ClockTime = 3 s

Time = 0.0205

Courant Number mean: 0.0966723 max: 0.482991
smoothSolver:  Solving for Ux, Initial residual = 0.0016157, Final residual = 9.83958e-06, No Iterations 26
smoothSolver:  Solving for Uy, Initial residual = 0.00339572, Final residual = 9.87658e-06, No Iterations 30
DICPCG:  Solving for p, Initial residual = 0.00289432, Final residual = 9.70049e-05, No Iterations 56
time step continuity errors : sum local = 1.91997e-08, global = -2.60976e-20, cumulative = -9.48563e-19
DICPCG:  Solving for p, Initial residual = 0.0027308, Final residual = 8.75594e-07, No Iterations 139
time step continuity errors : sum local = 1.57484e-10, global = -1.88529e-21, cumulative = -9.50449e-19
ExecutionTime = 2.54 s  ClockTime = 3 s

Time = 0.021

Courant Number mean: 0.0971564 max: 0.483083
smoothSolver:  Solving for Ux, Initial residual = 0.00155024, Final residual = 9.44411e-06, No Iterations 26
smoothSolver:  Solving for Uy, Initial residual = 0.0032845, Final residual = 9.54388e-06, No Iterations 30
DICPCG:  Solving for p, Initial residual = 0.00308916, Final residual = 0.000141885, No Iterations 113
time step continuity errors : sum local = 2.54867e-08, global = 1.06446e-19, cumulative = -8.44003e-19
DICPCG:  Solving for p, Initial residual = 0.00289986, Final residual = 8.50823e-07, No Iterations 139
time step continuity errors : sum local = 1.52965e-10, global = -8.8969e-20, cumulative = -9.32972e-19
ExecutionTime = 2.6 s  ClockTime = 3 s

Time = 0.0215

Courant Number mean: 0.097623 max: 0.483171
smoothSolver:  Solving for Ux, Initial residual = 0.00149837, Final residual = 9.1553e-06, No Iterations 26
smoothSolver:  Solving for Uy, Initial residual = 0.00315116, Final residual = 9.15539e-06, No Iterations 30
DICPCG:  Solving for p, Initial residual = 0.00279655, Final residual = 0.000126156, No Iterations 112
time step continuity errors : sum local = 2.27295e-08, global = -3.29125e-20, cumulative = -9.65885e-19
DICPCG:  Solving for p, Initial residual = 0.00263247, Final residual = 8.40956e-07, No Iterations 138
time step continuity errors : sum local = 1.51247e-10, global = -9.97848e-20, cumulative = -1.06567e-18
ExecutionTime = 2.66 s  ClockTime = 3 s

Time = 0.022

Courant Number mean: 0.0980731 max: 0.483255
smoothSolver:  Solving for Ux, Initial residual = 0.00144289, Final residual = 8.83176e-06, No Iterations 26
smoothSolver:  Solving for Uy, Initial residual = 0.00303512, Final residual = 8.83141e-06, No Iterations 30
DICPCG:  Solving for p, Initial residual = 0.00258743, Final residual = 0.000129245, No Iterations 55
time step continuity errors : sum local = 2.47014e-08, global = -4.27364e-20, cumulative = -1.10841e-18
DICPCG:  Solving for p, Initial residual = 0.00244363, Final residual = 9.62829e-07, No Iterations 138
time step continuity errors : sum local = 1.73298e-10, global = -3.60996e-20, cumulative = -1.14451e-18
ExecutionTime = 2.71 s  ClockTime = 3 s

Time = 0.0225

Courant Number mean: 0.0985091 max: 0.483334
smoothSolver:  Solving for Ux, Initial residual = 0.00138594, Final residual = 8.48702e-06, No Iterations 26
smoothSolver:  Solving for Uy, Initial residual = 0.00293991, Final residual = 8.54657e-06, No Iterations 30
DICPCG:  Solving for p, Initial residual = 0.00276315, Final residual = 0.000125613, No Iterations 113
time step continuity errors : sum local = 2.25652e-08, global = -5.93147e-20, cumulative = -1.20382e-18
DICPCG:  Solving for p, Initial residual = 0.00259188, Final residual = 9.66487e-07, No Iterations 138
time step continuity errors : sum local = 1.73923e-10, global = 6.50012e-21, cumulative = -1.19732e-18
ExecutionTime = 2.76 s  ClockTime = 3 s

Time = 0.023

Courant Number mean: 0.0989306 max: 0.48341
smoothSolver:  Solving for Ux, Initial residual = 0.00134181, Final residual = 8.23663e-06, No Iterations 26
smoothSolver:  Solving for Uy, Initial residual = 0.00282419, Final residual = 9.97525e-06, No Iterations 29
DICPCG:  Solving for p, Initial residual = 0.00247483, Final residual = 0.000105551, No Iterations 112
time step continuity errors : sum local = 1.9015e-08, global = 8.57411e-21, cumulative = -1.18875e-18
DICPCG:  Solving for p, Initial residual = 0.00232479, Final residual = 9.26485e-07, No Iterations 136
time step continuity errors : sum local = 1.67012e-10, global = -1.41468e-20, cumulative = -1.20289e-18
ExecutionTime = 2.82 s  ClockTime = 3 s

Time = 0.0235

Courant Number mean: 0.0993379 max: 0.483482
smoothSolver:  Solving for Ux, Initial residual = 0.00129388, Final residual = 9.67366e-06, No Iterations 25
smoothSolver:  Solving for Uy, Initial residual = 0.00272427, Final residual = 9.63541e-06, No Iterations 29
DICPCG:  Solving for p, Initial residual = 0.00229385, Final residual = 0.000113528, No Iterations 55
time step continuity errors : sum local = 2.17382e-08, global = 6.83799e-20, cumulative = -1.13451e-18
DICPCG:  Solving for p, Initial residual = 0.00217004, Final residual = 9.75071e-07, No Iterations 137
time step continuity errors : sum local = 1.75422e-10, global = -5.32682e-20, cumulative = -1.18778e-18
ExecutionTime = 2.87 s  ClockTime = 3 s

Time = 0.024

Courant Number mean: 0.0997315 max: 0.483551
smoothSolver:  Solving for Ux, Initial residual = 0.00124447, Final residual = 9.30793e-06, No Iterations 25
smoothSolver:  Solving for Uy, Initial residual = 0.00264178, Final residual = 9.33447e-06, No Iterations 29
DICPCG:  Solving for p, Initial residual = 0.00245571, Final residual = 0.000113513, No Iterations 113
time step continuity errors : sum local = 2.03985e-08, global = -5.12561e-20, cumulative = -1.23904e-18
DICPCG:  Solving for p, Initial residual = 0.00230576, Final residual = 8.53493e-07, No Iterations 138
time step continuity errors : sum local = 1.53602e-10, global = -3.95205e-20, cumulative = -1.27856e-18
ExecutionTime = 2.92 s  ClockTime = 3 s

Time = 0.0245

Courant Number mean: 0.100112 max: 0.483617
smoothSolver:  Solving for Ux, Initial residual = 0.00120627, Final residual = 9.04328e-06, No Iterations 25
smoothSolver:  Solving for Uy, Initial residual = 0.00254098, Final residual = 8.97838e-06, No Iterations 29
DICPCG:  Solving for p, Initial residual = 0.00222833, Final residual = 0.000107469, No Iterations 111
time step continuity errors : sum local = 1.9366e-08, global = 6.05652e-20, cumulative = -1.21799e-18
DICPCG:  Solving for p, Initial residual = 0.00209346, Final residual = 9.52712e-07, No Iterations 135
time step continuity errors : sum local = 1.71887e-10, global = 1.84476e-20, cumulative = -1.19954e-18
ExecutionTime = 2.98 s  ClockTime = 4 s

Time = 0.025

Courant Number mean: 0.10048 max: 0.48368
smoothSolver:  Solving for Ux, Initial residual = 0.00116448, Final residual = 8.73952e-06, No Iterations 25
smoothSolver:  Solving for Uy, Initial residual = 0.0024541, Final residual = 8.6818e-06, No Iterations 29
DICPCG:  Solving for p, Initial residual = 0.00213808, Final residual = 9.5737e-05, No Iterations 55
time step continuity errors : sum local = 1.81862e-08, global = -8.89733e-20, cumulative = -1.28852e-18
DICPCG:  Solving for p, Initial residual = 0.0020147, Final residual = 8.20808e-07, No Iterations 136
time step continuity errors : sum local = 1.47781e-10, global = -1.988e-20, cumulative = -1.3084e-18
ExecutionTime = 3.03 s  ClockTime = 4 s

Time = 0.0255

Courant Number mean: 0.100836 max: 0.48374
smoothSolver:  Solving for Ux, Initial residual = 0.00112155, Final residual = 8.41962e-06, No Iterations 25
smoothSolver:  Solving for Uy, Initial residual = 0.00238097, Final residual = 8.41687e-06, No Iterations 29
DICPCG:  Solving for p, Initial residual = 0.00216303, Final residual = 9.86517e-05, No Iterations 113
time step continuity errors : sum local = 1.77278e-08, global = -9.94478e-20, cumulative = -1.40785e-18
DICPCG:  Solving for p, Initial residual = 0.00203305, Final residual = 9.2653e-07, No Iterations 137
time step continuity errors : sum local = 1.66683e-10, global = -6.96654e-20, cumulative = -1.47751e-18
ExecutionTime = 3.08 s  ClockTime = 4 s

Time = 0.026

Courant Number mean: 0.101181 max: 0.483798
smoothSolver:  Solving for Ux, Initial residual = 0.00108787, Final residual = 9.95064e-06, No Iterations 24
smoothSolver:  Solving for Uy, Initial residual = 0.00229337, Final residual = 9.85108e-06, No Iterations 28
DICPCG:  Solving for p, Initial residual = 0.00198182, Final residual = 9.59764e-05, No Iterations 56
time step continuity errors : sum local = 2.11479e-08, global = -4.13325e-20, cumulative = -1.51884e-18
DICPCG:  Solving for p, Initial residual = 0.00186609, Final residual = 8.85511e-07, No Iterations 134
time step continuity errors : sum local = 1.59641e-10, global = 1.90535e-20, cumulative = -1.49979e-18
ExecutionTime = 3.13 s  ClockTime = 4 s

Time = 0.0265

Courant Number mean: 0.101514 max: 0.483853
smoothSolver:  Solving for Ux, Initial residual = 0.00104569, Final residual = 9.53725e-06, No Iterations 24
smoothSolver:  Solving for Uy, Initial residual = 0.00224419, Final residual = 9.61434e-06, No Iterations 28
DICPCG:  Solving for p, Initial residual = 0.00236915, Final residual = 0.000115327, No Iterations 94
time step continuity errors : sum local = 2.0752e-08, global = 7.44915e-20, cumulative = -1.4253e-18
DICPCG:  Solving for p, Initial residual = 0.00222199, Final residual = 9.27363e-07, No Iterations 139
time step continuity errors : sum local = 1.67069e-10, global = 1.71591e-20, cumulative = -1.40814e-18
ExecutionTime = 3.18 s  ClockTime = 4 s

Time = 0.027

Courant Number mean: 0.101836 max: 0.483905
smoothSolver:  Solving for Ux, Initial residual = 0.00102107, Final residual = 9.34625e-06, No Iterations 24
smoothSolver:  Solving for Uy, Initial residual = 0.00214858, Final residual = 9.21279e-06, No Iterations 28
DICPCG:  Solving for p, Initial residual = 0.00193806, Final residual = 7.96395e-05, No Iterations 109
time step continuity errors : sum local = 1.432e-08, global = -7.61269e-20, cumulative = -1.48427e-18
DICPCG:  Solving for p, Initial residual = 0.00180867, Final residual = 9.16878e-07, No Iterations 139
time step continuity errors : sum local = 1.65201e-10, global = 3.8267e-20, cumulative = -1.446e-18
ExecutionTime = 3.24 s  ClockTime = 4 s

Time = 0.0275

Courant Number mean: 0.102148 max: 0.483956
smoothSolver:  Solving for Ux, Initial residual = 0.000983282, Final residual = 9.01799e-06, No Iterations 24
smoothSolver:  Solving for Uy, Initial residual = 0.00207713, Final residual = 8.92784e-06, No Iterations 28
DICPCG:  Solving for p, Initial residual = 0.00175649, Final residual = 7.50848e-05, No Iterations 55
time step continuity errors : sum local = 1.39321e-08, global = -9.54395e-20, cumulative = -1.54144e-18
DICPCG:  Solving for p, Initial residual = 0.0016537, Final residual = 9.52665e-07, No Iterations 137
time step continuity errors : sum local = 1.71583e-10, global = 1.22702e-20, cumulative = -1.52917e-18
ExecutionTime = 3.29 s  ClockTime = 4 s

Time = 0.028

Courant Number mean: 0.10245 max: 0.484005
smoothSolver:  Solving for Ux, Initial residual = 0.000949072, Final residual = 8.71121e-06, No Iterations 24
smoothSolver:  Solving for Uy, Initial residual = 0.00201478, Final residual = 8.66005e-06, No Iterations 28
DICPCG:  Solving for p, Initial residual = 0.00175851, Final residual = 8.04566e-05, No Iterations 55
time step continuity errors : sum local = 1.6286e-08, global = 6.41297e-20, cumulative = -1.46504e-18
DICPCG:  Solving for p, Initial residual = 0.00166609, Final residual = 9.60229e-07, No Iterations 137
time step continuity errors : sum local = 1.72941e-10, global = 1.07121e-19, cumulative = -1.35792e-18
ExecutionTime = 3.33 s  ClockTime = 4 s

Time = 0.0285

Courant Number mean: 0.102742 max: 0.484051
smoothSolver:  Solving for Ux, Initial residual = 0.00092711, Final residual = 8.51024e-06, No Iterations 24
smoothSolver:  Solving for Uy, Initial residual = 0.00193971, Final residual = 8.32577e-06, No Iterations 28
DICPCG:  Solving for p, Initial residual = 0.00175306, Final residual = 8.07344e-05, No Iterations 101
time step continuity errors : sum local = 1.4589e-08, global = 3.73466e-20, cumulative = -1.32057e-18
DICPCG:  Solving for p, Initial residual = 0.00164221, Final residual = 9.75445e-07, No Iterations 136
time step continuity errors : sum local = 1.76014e-10, global = -2.35818e-20, cumulative = -1.34415e-18
ExecutionTime = 3.39 s  ClockTime = 4 s

Time = 0.029

Courant Number mean: 0.103026 max: 0.484096
smoothSolver:  Solving for Ux, Initial residual = 0.000892487, Final residual = 9.96801e-06, No Iterations 23
smoothSolver:  Solving for Uy, Initial residual = 0.00188695, Final residual = 9.85405e-06, No Iterations 27
DICPCG:  Solving for p, Initial residual = 0.00161764, Final residual = 7.58645e-05, No Iterations 55
time step continuity errors : sum local = 1.45505e-08, global = 2.94643e-20, cumulative = -1.31469e-18
DICPCG:  Solving for p, Initial residual = 0.00150878, Final residual = 9.76349e-07, No Iterations 133
time step continuity errors : sum local = 1.75956e-10, global = 2.79499e-20, cumulative = -1.28674e-18
ExecutionTime = 3.44 s  ClockTime = 4 s

Time = 0.0295

Courant Number mean: 0.103301 max: 0.484138
smoothSolver:  Solving for Ux, Initial residual = 0.000865779, Final residual = 9.68284e-06, No Iterations 23
smoothSolver:  Solving for Uy, Initial residual = 0.00182331, Final residual = 9.51796e-06, No Iterations 27
DICPCG:  Solving for p, Initial residual = 0.00165802, Final residual = 8.03855e-05, No Iterations 112
time step continuity errors : sum local = 1.44904e-08, global = 3.60066e-20, cumulative = -1.25073e-18
DICPCG:  Solving for p, Initial residual = 0.00155556, Final residual = 8.93519e-07, No Iterations 135
time step continuity errors : sum local = 1.61039e-10, global = -8.85676e-20, cumulative = -1.3393e-18
ExecutionTime = 3.5 s  ClockTime = 4 s

Time = 0.03

Courant Number mean: 0.103567 max: 0.484179
smoothSolver:  Solving for Ux, Initial residual = 0.000837028, Final residual = 9.36769e-06, No Iterations 23
smoothSolver:  Solving for Uy, Initial residual = 0.00176971, Final residual = 9.24549e-06, No Iterations 27
DICPCG:  Solving for p, Initial residual = 0.00154211, Final residual = 7.58762e-05, No Iterations 54
time step continuity errors : sum local = 1.42346e-08, global = 5.98275e-20, cumulative = -1.27947e-18
DICPCG:  Solving for p, Initial residual = 0.00144228, Final residual = 9.52407e-07, No Iterations 133
time step continuity errors : sum local = 1.71578e-10, global = 8.56405e-21, cumulative = -1.27091e-18
ExecutionTime = 3.57 s  ClockTime = 4 s

Time = 0.0305

Courant Number mean: 0.103826 max: 0.484218
smoothSolver:  Solving for Ux, Initial residual = 0.000811036, Final residual = 9.08374e-06, No Iterations 23
smoothSolver:  Solving for Uy, Initial residual = 0.00171412, Final residual = 8.95265e-06, No Iterations 27
DICPCG:  Solving for p, Initial residual = 0.00155551, Final residual = 7.03296e-05, No Iterations 108
time step continuity errors : sum local = 1.26656e-08, global = 9.6997e-21, cumulative = -1.26121e-18
DICPCG:  Solving for p, Initial residual = 0.00145414, Final residual = 9.74269e-07, No Iterations 133
time step continuity errors : sum local = 1.753e-10, global = -6.12239e-20, cumulative = -1.32243e-18
ExecutionTime = 3.62 s  ClockTime = 4 s

Time = 0.031

Courant Number mean: 0.104077 max: 0.484256
smoothSolver:  Solving for Ux, Initial residual = 0.000785571, Final residual = 8.80607e-06, No Iterations 23
smoothSolver:  Solving for Uy, Initial residual = 0.00166239, Final residual = 8.68562e-06, No Iterations 27
DICPCG:  Solving for p, Initial residual = 0.00140189, Final residual = 6.89349e-05, No Iterations 54
time step continuity errors : sum local = 1.24123e-08, global = 8.12235e-20, cumulative = -1.24121e-18
DICPCG:  Solving for p, Initial residual = 0.00131325, Final residual = 7.93363e-07, No Iterations 98
time step continuity errors : sum local = 1.52207e-10, global = -1.14647e-19, cumulative = -1.35586e-18
ExecutionTime = 3.66 s  ClockTime = 4 s

Time = 0.0315

Courant Number mean: 0.104321 max: 0.484292
smoothSolver:  Solving for Ux, Initial residual = 0.000759908, Final residual = 8.52782e-06, No Iterations 23
smoothSolver:  Solving for Uy, Initial residual = 0.00161295, Final residual = 8.42844e-06, No Iterations 27
DICPCG:  Solving for p, Initial residual = 0.00141741, Final residual = 6.78582e-05, No Iterations 53
time step continuity errors : sum local = 1.29425e-08, global = 5.86116e-20, cumulative = -1.29724e-18
DICPCG:  Solving for p, Initial residual = 0.00134563, Final residual = 8.63687e-07, No Iterations 132
time step continuity errors : sum local = 1.55574e-10, global = -7.01415e-20, cumulative = -1.36739e-18
ExecutionTime = 3.71 s  ClockTime = 4 s

Time = 0.032

Courant Number mean: 0.104557 max: 0.484327
smoothSolver:  Solving for Ux, Initial residual = 0.000735719, Final residual = 8.25352e-06, No Iterations 23
smoothSolver:  Solving for Uy, Initial residual = 0.00156856, Final residual = 9.94932e-06, No Iterations 26
DICPCG:  Solving for p, Initial residual = 0.00139828, Final residual = 6.73414e-05, No Iterations 108
time step continuity errors : sum local = 1.21409e-08, global = -1.98835e-20, cumulative = -1.38727e-18
DICPCG:  Solving for p, Initial residual = 0.00130494, Final residual = 9.38683e-07, No Iterations 132
time step continuity errors : sum local = 1.68886e-10, global = 1.6258e-20, cumulative = -1.37101e-18
ExecutionTime = 3.76 s  ClockTime = 4 s

Time = 0.0325

Courant Number mean: 0.104786 max: 0.48436
smoothSolver:  Solving for Ux, Initial residual = 0.000716115, Final residual = 9.77647e-06, No Iterations 22
smoothSolver:  Solving for Uy, Initial residual = 0.00151534, Final residual = 9.61456e-06, No Iterations 26
DICPCG:  Solving for p, Initial residual = 0.00129463, Final residual = 5.86639e-05, No Iterations 56
time step continuity errors : sum local = 1.29265e-08, global = -4.97148e-21, cumulative = -1.37598e-18
DICPCG:  Solving for p, Initial residual = 0.00122241, Final residual = 8.06482e-07, No Iterations 133
time step continuity errors : sum local = 1.45297e-10, global = 5.78902e-20, cumulative = -1.31809e-18
ExecutionTime = 3.81 s  ClockTime = 4 s

Time = 0.033

Courant Number mean: 0.105008 max: 0.484393
smoothSolver:  Solving for Ux, Initial residual = 0.00069036, Final residual = 9.4026e-06, No Iterations 22
smoothSolver:  Solving for Uy, Initial residual = 0.00148614, Final residual = 9.40814e-06, No Iterations 26
DICPCG:  Solving for p, Initial residual = 0.00146705, Final residual = 7.30163e-05, No Iterations 105
time step continuity errors : sum local = 1.32532e-08, global = -1.0568e-19, cumulative = -1.42377e-18
DICPCG:  Solving for p, Initial residual = 0.00138366, Final residual = 8.15159e-07, No Iterations 138
time step continuity errors : sum local = 1.46853e-10, global = -2.93229e-22, cumulative = -1.42407e-18
ExecutionTime = 3.86 s  ClockTime = 4 s

Time = 0.0335

Courant Number mean: 0.105223 max: 0.484424
smoothSolver:  Solving for Ux, Initial residual = 0.000675906, Final residual = 9.22748e-06, No Iterations 22
smoothSolver:  Solving for Uy, Initial residual = 0.00142801, Final residual = 9.04773e-06, No Iterations 26
DICPCG:  Solving for p, Initial residual = 0.00131221, Final residual = 6.18156e-05, No Iterations 112
time step continuity errors : sum local = 1.11266e-08, global = -1.22182e-19, cumulative = -1.54625e-18
DICPCG:  Solving for p, Initial residual = 0.00122989, Final residual = 9.73088e-07, No Iterations 129
time step continuity errors : sum local = 1.75753e-10, global = 1.40187e-20, cumulative = -1.53223e-18
ExecutionTime = 3.92 s  ClockTime = 4 s

Time = 0.034

Courant Number mean: 0.105433 max: 0.484454
smoothSolver:  Solving for Ux, Initial residual = 0.000653465, Final residual = 8.93531e-06, No Iterations 22
smoothSolver:  Solving for Uy, Initial residual = 0.00138413, Final residual = 8.78837e-06, No Iterations 26
DICPCG:  Solving for p, Initial residual = 0.00118978, Final residual = 5.45651e-05, No Iterations 54
time step continuity errors : sum local = 9.8256e-09, global = -7.25127e-21, cumulative = -1.53948e-18
DICPCG:  Solving for p, Initial residual = 0.00111745, Final residual = 8.93763e-07, No Iterations 94
time step continuity errors : sum local = 1.80654e-10, global = 4.96078e-20, cumulative = -1.48987e-18
ExecutionTime = 3.96 s  ClockTime = 5 s

Time = 0.0345

Courant Number mean: 0.105635 max: 0.484482
smoothSolver:  Solving for Ux, Initial residual = 0.000632927, Final residual = 8.66223e-06, No Iterations 22
smoothSolver:  Solving for Uy, Initial residual = 0.00134479, Final residual = 8.53884e-06, No Iterations 26
DICPCG:  Solving for p, Initial residual = 0.00114281, Final residual = 5.24432e-05, No Iterations 53
time step continuity errors : sum local = 9.86586e-09, global = 5.86295e-20, cumulative = -1.43124e-18
DICPCG:  Solving for p, Initial residual = 0.00108683, Final residual = 8.08911e-07, No Iterations 131
time step continuity errors : sum local = 1.45658e-10, global = -5.49156e-20, cumulative = -1.48616e-18
ExecutionTime = 4 s  ClockTime = 5 s

Time = 0.035

Courant Number mean: 0.105833 max: 0.48451
smoothSolver:  Solving for Ux, Initial residual = 0.000613502, Final residual = 8.39565e-06, No Iterations 22
smoothSolver:  Solving for Uy, Initial residual = 0.00130809, Final residual = 8.30125e-06, No Iterations 26
DICPCG:  Solving for p, Initial residual = 0.00114754, Final residual = 4.8559e-05, No Iterations 108
time step continuity errors : sum local = 8.74892e-09, global = 8.61456e-20, cumulative = -1.40001e-18
DICPCG:  Solving for p, Initial residual = 0.00107265, Final residual = 8.86105e-07, No Iterations 131
time step continuity errors : sum local = 1.59547e-10, global = -1.91915e-20, cumulative = -1.41921e-18
ExecutionTime = 4.06 s  ClockTime = 5 s

Time = 0.0355

Courant Number mean: 0.106024 max: 0.484536
smoothSolver:  Solving for Ux, Initial residual = 0.000597451, Final residual = 9.94525e-06, No Iterations 21
smoothSolver:  Solving for Uy, Initial residual = 0.00126602, Final residual = 9.76327e-06, No Iterations 25
DICPCG:  Solving for p, Initial residual = 0.00104008, Final residual = 4.63459e-05, No Iterations 56
time step continuity errors : sum local = 9.99263e-09, global = -4.25135e-20, cumulative = -1.46172e-18
DICPCG:  Solving for p, Initial residual = 0.000984145, Final residual = 9.56477e-07, No Iterations 131
time step continuity errors : sum local = 1.72113e-10, global = -4.65273e-20, cumulative = -1.50825e-18
ExecutionTime = 4.1 s  ClockTime = 5 s

Time = 0.036

Courant Number mean: 0.10621 max: 0.484562
smoothSolver:  Solving for Ux, Initial residual = 0.000576737, Final residual = 9.58288e-06, No Iterations 21
smoothSolver:  Solving for Uy, Initial residual = 0.00124093, Final residual = 9.55077e-06, No Iterations 25
DICPCG:  Solving for p, Initial residual = 0.00117333, Final residual = 5.7748e-05, No Iterations 93
time step continuity errors : sum local = 1.04318e-08, global = -4.13745e-20, cumulative = -1.54962e-18
DICPCG:  Solving for p, Initial residual = 0.00110575, Final residual = 9.57452e-07, No Iterations 135
time step continuity errors : sum local = 1.72455e-10, global = -3.33646e-20, cumulative = -1.58299e-18
ExecutionTime = 4.15 s  ClockTime = 5 s

Time = 0.0365

Courant Number mean: 0.10639 max: 0.484586
smoothSolver:  Solving for Ux, Initial residual = 0.000564643, Final residual = 9.39831e-06, No Iterations 21
smoothSolver:  Solving for Uy, Initial residual = 0.00119515, Final residual = 9.20472e-06, No Iterations 25
DICPCG:  Solving for p, Initial residual = 0.00107767, Final residual = 4.45508e-05, No Iterations 109
time step continuity errors : sum local = 8.01878e-09, global = -5.08538e-20, cumulative = -1.63384e-18
DICPCG:  Solving for p, Initial residual = 0.0010115, Final residual = 9.9372e-07, No Iterations 133
time step continuity errors : sum local = 1.79179e-10, global = 2.34635e-21, cumulative = -1.63149e-18
ExecutionTime = 4.21 s  ClockTime = 5 s

Time = 0.037

Courant Number mean: 0.106565 max: 0.48461
smoothSolver:  Solving for Ux, Initial residual = 0.000546793, Final residual = 9.11192e-06, No Iterations 21
smoothSolver:  Solving for Uy, Initial residual = 0.00116002, Final residual = 8.94946e-06, No Iterations 25
DICPCG:  Solving for p, Initial residual = 0.000981178, Final residual = 4.14117e-05, No Iterations 55
time step continuity errors : sum local = 7.48806e-09, global = 1.62071e-20, cumulative = -1.61529e-18
DICPCG:  Solving for p, Initial residual = 0.000923064, Final residual = 8.90479e-07, No Iterations 95
time step continuity errors : sum local = 1.60992e-10, global = 7.12235e-20, cumulative = -1.54406e-18
ExecutionTime = 4.25 s  ClockTime = 5 s

Time = 0.0375

Courant Number mean: 0.106735 max: 0.484633
smoothSolver:  Solving for Ux, Initial residual = 0.000530296, Final residual = 8.8431e-06, No Iterations 21
smoothSolver:  Solving for Uy, Initial residual = 0.00112756, Final residual = 8.69935e-06, No Iterations 25
DICPCG:  Solving for p, Initial residual = 0.000939054, Final residual = 4.58281e-05, No Iterations 53
time step continuity errors : sum local = 8.73164e-09, global = 8.26881e-20, cumulative = -1.46137e-18
DICPCG:  Solving for p, Initial residual = 0.000888626, Final residual = 9.22282e-07, No Iterations 132
time step continuity errors : sum local = 1.66409e-10, global = -6.13565e-20, cumulative = -1.52273e-18
ExecutionTime = 4.29 s  ClockTime = 5 s

Time = 0.038

Courant Number mean: 0.1069 max: 0.484655
smoothSolver:  Solving for Ux, Initial residual = 0.000514129, Final residual = 8.5709e-06, No Iterations 21
smoothSolver:  Solving for Uy, Initial residual = 0.00109883, Final residual = 8.47094e-06, No Iterations 25
DICPCG:  Solving for p, Initial residual = 0.00097705, Final residual = 4.72962e-05, No Iterations 107
time step continuity errors : sum local = 8.52782e-09, global = -1.07685e-19, cumulative = -1.63042e-18
DICPCG:  Solving for p, Initial residual = 0.000915578, Final residual = 9.91781e-07, No Iterations 130
time step continuity errors : sum local = 1.78661e-10, global = -7.39647e-20, cumulative = -1.70438e-18
ExecutionTime = 4.34 s  ClockTime = 5 s

Time = 0.0385

Courant Number mean: 0.10706 max: 0.484676
smoothSolver:  Solving for Ux, Initial residual = 0.000501401, Final residual = 8.36467e-06, No Iterations 21
smoothSolver:  Solving for Uy, Initial residual = 0.00106355, Final residual = 9.96388e-06, No Iterations 24
DICPCG:  Solving for p, Initial residual = 0.000864451, Final residual = 3.91832e-05, No Iterations 56
time step continuity errors : sum local = 8.54012e-09, global = -7.92717e-20, cumulative = -1.78365e-18
DICPCG:  Solving for p, Initial residual = 0.000813444, Final residual = 8.48261e-07, No Iterations 132
time step continuity errors : sum local = 1.52667e-10, global = -4.53704e-20, cumulative = -1.82902e-18
ExecutionTime = 4.39 s  ClockTime = 5 s

Time = 0.039

Courant Number mean: 0.107216 max: 0.484697
smoothSolver:  Solving for Ux, Initial residual = 0.000484037, Final residual = 9.79509e-06, No Iterations 20
smoothSolver:  Solving for Uy, Initial residual = 0.00104401, Final residual = 9.76255e-06, No Iterations 24
DICPCG:  Solving for p, Initial residual = 0.000989017, Final residual = 4.23004e-05, No Iterations 108
time step continuity errors : sum local = 7.63812e-09, global = -8.84675e-20, cumulative = -1.91749e-18
DICPCG:  Solving for p, Initial residual = 0.000930102, Final residual = 8.59677e-07, No Iterations 134
time step continuity errors : sum local = 1.54916e-10, global = -1.16524e-19, cumulative = -2.03401e-18
ExecutionTime = 4.44 s  ClockTime = 5 s

Time = 0.0395

Courant Number mean: 0.107367 max: 0.484716
smoothSolver:  Solving for Ux, Initial residual = 0.00047456, Final residual = 9.61792e-06, No Iterations 20
smoothSolver:  Solving for Uy, Initial residual = 0.00100501, Final residual = 9.40494e-06, No Iterations 24
DICPCG:  Solving for p, Initial residual = 0.000895275, Final residual = 4.19893e-05, No Iterations 111
time step continuity errors : sum local = 7.56879e-09, global = 2.51349e-20, cumulative = -2.00888e-18
DICPCG:  Solving for p, Initial residual = 0.000847322, Final residual = 8.29491e-07, No Iterations 134
time step continuity errors : sum local = 1.49746e-10, global = -8.31043e-20, cumulative = -2.09198e-18
ExecutionTime = 4.49 s  ClockTime = 5 s

Time = 0.04

Courant Number mean: 0.107513 max: 0.484736
smoothSolver:  Solving for Ux, Initial residual = 0.000459883, Final residual = 9.33142e-06, No Iterations 20
smoothSolver:  Solving for Uy, Initial residual = 0.000976685, Final residual = 9.15481e-06, No Iterations 24
DICPCG:  Solving for p, Initial residual = 0.000848559, Final residual = 4.21056e-05, No Iterations 53
time step continuity errors : sum local = 7.86085e-09, global = -6.94182e-20, cumulative = -2.1614e-18
DICPCG:  Solving for p, Initial residual = 0.000796141, Final residual = 9.11032e-07, No Iterations 131
time step continuity errors : sum local = 1.64315e-10, global = 9.89598e-20, cumulative = -2.06244e-18
ExecutionTime = 4.57 s  ClockTime = 5 s

Time = 0.0405

Courant Number mean: 0.107656 max: 0.484754
smoothSolver:  Solving for Ux, Initial residual = 0.000446994, Final residual = 9.0715e-06, No Iterations 20
smoothSolver:  Solving for Uy, Initial residual = 0.000949252, Final residual = 8.89609e-06, No Iterations 24
DICPCG:  Solving for p, Initial residual = 0.000855405, Final residual = 3.83304e-05, No Iterations 93
time step continuity errors : sum local = 6.93296e-09, global = 1.39987e-19, cumulative = -1.92245e-18
DICPCG:  Solving for p, Initial residual = 0.000800418, Final residual = 9.48881e-07, No Iterations 131
time step continuity errors : sum local = 1.70758e-10, global = -1.30218e-19, cumulative = -2.05267e-18
ExecutionTime = 4.62 s  ClockTime = 5 s

Time = 0.041

Courant Number mean: 0.107794 max: 0.484772
smoothSolver:  Solving for Ux, Initial residual = 0.000434872, Final residual = 8.82986e-06, No Iterations 20
smoothSolver:  Solving for Uy, Initial residual = 0.000923392, Final residual = 8.65537e-06, No Iterations 24
DICPCG:  Solving for p, Initial residual = 0.000760139, Final residual = 3.66221e-05, No Iterations 55
time step continuity errors : sum local = 6.97374e-09, global = 9.38463e-20, cumulative = -1.95883e-18
DICPCG:  Solving for p, Initial residual = 0.000716338, Final residual = 9.6299e-07, No Iterations 131
time step continuity errors : sum local = 1.73769e-10, global = 6.58031e-20, cumulative = -1.89302e-18
ExecutionTime = 4.67 s  ClockTime = 5 s

Time = 0.0415

Courant Number mean: 0.107929 max: 0.484789
smoothSolver:  Solving for Ux, Initial residual = 0.000423121, Final residual = 8.5904e-06, No Iterations 20
smoothSolver:  Solving for Uy, Initial residual = 0.000896386, Final residual = 8.40091e-06, No Iterations 24
DICPCG:  Solving for p, Initial residual = 0.000788236, Final residual = 3.87609e-05, No Iterations 95
time step continuity errors : sum local = 7.00363e-09, global = -1.33307e-19, cumulative = -2.02633e-18
DICPCG:  Solving for p, Initial residual = 0.00073801, Final residual = 8.09324e-07, No Iterations 131
time step continuity errors : sum local = 1.45742e-10, global = 1.59943e-22, cumulative = -2.02617e-18
ExecutionTime = 4.72 s  ClockTime = 5 s

Time = 0.042

Courant Number mean: 0.108061 max: 0.484805
smoothSolver:  Solving for Ux, Initial residual = 0.000411026, Final residual = 8.34944e-06, No Iterations 20
smoothSolver:  Solving for Uy, Initial residual = 0.000873501, Final residual = 9.94721e-06, No Iterations 23
DICPCG:  Solving for p, Initial residual = 0.000691746, Final residual = 3.35405e-05, No Iterations 55
time step continuity errors : sum local = 6.57721e-09, global = -5.24971e-20, cumulative = -2.07867e-18
DICPCG:  Solving for p, Initial residual = 0.000647594, Final residual = 9.1942e-07, No Iterations 129
time step continuity errors : sum local = 1.65688e-10, global = 6.0049e-20, cumulative = -2.01862e-18
ExecutionTime = 4.76 s  ClockTime = 5 s

Time = 0.0425

Courant Number mean: 0.108188 max: 0.484821
smoothSolver:  Solving for Ux, Initial residual = 0.000400598, Final residual = 9.88387e-06, No Iterations 19
smoothSolver:  Solving for Uy, Initial residual = 0.000847045, Final residual = 9.64298e-06, No Iterations 23
DICPCG:  Solving for p, Initial residual = 0.000767474, Final residual = 3.16547e-05, No Iterations 108
time step continuity errors : sum local = 5.7286e-09, global = 4.6222e-20, cumulative = -1.9724e-18
DICPCG:  Solving for p, Initial residual = 0.000723573, Final residual = 9.84689e-07, No Iterations 131
time step continuity errors : sum local = 1.77314e-10, global = -3.34441e-20, cumulative = -2.00584e-18
ExecutionTime = 4.81 s  ClockTime = 5 s

Time = 0.043

Courant Number mean: 0.108312 max: 0.484837
smoothSolver:  Solving for Ux, Initial residual = 0.000388465, Final residual = 9.59079e-06, No Iterations 19
smoothSolver:  Solving for Uy, Initial residual = 0.000826236, Final residual = 9.40829e-06, No Iterations 23
DICPCG:  Solving for p, Initial residual = 0.000708301, Final residual = 2.92843e-05, No Iterations 56
time step continuity errors : sum local = 6.30729e-09, global = 1.06215e-19, cumulative = -1.89962e-18
DICPCG:  Solving for p, Initial residual = 0.000670753, Final residual = 8.87704e-07, No Iterations 130
time step continuity errors : sum local = 1.59926e-10, global = 8.14256e-23, cumulative = -1.89954e-18
ExecutionTime = 4.86 s  ClockTime = 5 s

Time = 0.0435

Courant Number mean: 0.108433 max: 0.484852
smoothSolver:  Solving for Ux, Initial residual = 0.000380844, Final residual = 9.39162e-06, No Iterations 19
smoothSolver:  Solving for Uy, Initial residual = 0.000799516, Final residual = 9.09107e-06, No Iterations 23
DICPCG:  Solving for p, Initial residual = 0.000764904, Final residual = 3.59073e-05, No Iterations 110
time step continuity errors : sum local = 6.49265e-09, global = 2.35893e-20, cumulative = -1.87595e-18
DICPCG:  Solving for p, Initial residual = 0.00072618, Final residual = 8.36954e-07, No Iterations 133
time step continuity errors : sum local = 1.50659e-10, global = 1.0238e-20, cumulative = -1.86572e-18
ExecutionTime = 4.91 s  ClockTime = 6 s

Time = 0.044

Courant Number mean: 0.10855 max: 0.484866
smoothSolver:  Solving for Ux, Initial residual = 0.000367404, Final residual = 9.06697e-06, No Iterations 19
smoothSolver:  Solving for Uy, Initial residual = 0.000782961, Final residual = 8.91115e-06, No Iterations 23
DICPCG:  Solving for p, Initial residual = 0.000706747, Final residual = 3.19624e-05, No Iterations 113
time step continuity errors : sum local = 5.75428e-09, global = -6.22373e-20, cumulative = -1.92795e-18
DICPCG:  Solving for p, Initial residual = 0.000668422, Final residual = 8.90826e-07, No Iterations 130
time step continuity errors : sum local = 1.60686e-10, global = -3.29053e-20, cumulative = -1.96086e-18
ExecutionTime = 4.96 s  ClockTime = 6 s

Time = 0.0445

Courant Number mean: 0.108664 max: 0.48488
smoothSolver:  Solving for Ux, Initial residual = 0.000357346, Final residual = 8.83199e-06, No Iterations 19
smoothSolver:  Solving for Uy, Initial residual = 0.000759772, Final residual = 8.65188e-06, No Iterations 23
DICPCG:  Solving for p, Initial residual = 0.000634546, Final residual = 2.76073e-05, No Iterations 55
time step continuity errors : sum local = 5.54119e-09, global = -3.88556e-20, cumulative = -1.99971e-18
DICPCG:  Solving for p, Initial residual = 0.000599855, Final residual = 8.82921e-07, No Iterations 129
time step continuity errors : sum local = 1.59444e-10, global = -4.91238e-20, cumulative = -2.04884e-18
ExecutionTime = 5.01 s  ClockTime = 6 s

Time = 0.045

Courant Number mean: 0.108775 max: 0.484893
smoothSolver:  Solving for Ux, Initial residual = 0.000346131, Final residual = 8.55068e-06, No Iterations 19
smoothSolver:  Solving for Uy, Initial residual = 0.000743296, Final residual = 8.45412e-06, No Iterations 23
DICPCG:  Solving for p, Initial residual = 0.000656328, Final residual = 3.0783e-05, No Iterations 95
time step continuity errors : sum local = 5.5848e-09, global = 3.68768e-20, cumulative = -2.01196e-18
DICPCG:  Solving for p, Initial residual = 0.000617968, Final residual = 8.77287e-07, No Iterations 119
time step continuity errors : sum local = 1.59804e-10, global = 2.53967e-20, cumulative = -1.98656e-18
ExecutionTime = 5.05 s  ClockTime = 6 s

Time = 0.0455

Courant Number mean: 0.108883 max: 0.484906
smoothSolver:  Solving for Ux, Initial residual = 0.000338909, Final residual = 8.37544e-06, No Iterations 19
smoothSolver:  Solving for Uy, Initial residual = 0.00071911, Final residual = 9.94211e-06, No Iterations 22
DICPCG:  Solving for p, Initial residual = 0.000616552, Final residual = 3.07802e-05, No Iterations 55
time step continuity errors : sum local = 6.2502e-09, global = -2.55526e-20, cumulative = -2.01212e-18
DICPCG:  Solving for p, Initial residual = 0.000581361, Final residual = 8.36102e-07, No Iterations 131
time step continuity errors : sum local = 1.5081e-10, global = 2.18346e-20, cumulative = -1.99028e-18
ExecutionTime = 5.1 s  ClockTime = 6 s

Time = 0.046

Courant Number mean: 0.108988 max: 0.484919
smoothSolver:  Solving for Ux, Initial residual = 0.00032743, Final residual = 9.82581e-06, No Iterations 18
smoothSolver:  Solving for Uy, Initial residual = 0.000705045, Final residual = 9.73847e-06, No Iterations 22
DICPCG:  Solving for p, Initial residual = 0.000681164, Final residual = 3.12576e-05, No Iterations 97
time step continuity errors : sum local = 5.63307e-09, global = -5.03268e-20, cumulative = -2.04061e-18
DICPCG:  Solving for p, Initial residual = 0.000643572, Final residual = 7.85765e-07, No Iterations 132
time step continuity errors : sum local = 1.41586e-10, global = -2.25462e-21, cumulative = -2.04286e-18
ExecutionTime = 5.15 s  ClockTime = 6 s

Time = 0.0465

Courant Number mean: 0.109089 max: 0.484931
smoothSolver:  Solving for Ux, Initial residual = 0.000321055, Final residual = 9.64237e-06, No Iterations 18
smoothSolver:  Solving for Uy, Initial residual = 0.000681455, Final residual = 9.41678e-06, No Iterations 22
DICPCG:  Solving for p, Initial residual = 0.000607702, Final residual = 2.93442e-05, No Iterations 56
time step continuity errors : sum local = 6.59602e-09, global = 1.08963e-19, cumulative = -1.9339e-18
DICPCG:  Solving for p, Initial residual = 0.000573143, Final residual = 9.80933e-07, No Iterations 130
time step continuity errors : sum local = 1.77043e-10, global = -2.03466e-20, cumulative = -1.95425e-18
ExecutionTime = 5.19 s  ClockTime = 6 s

Time = 0.047

Courant Number mean: 0.109188 max: 0.484943
smoothSolver:  Solving for Ux, Initial residual = 0.000309795, Final residual = 9.28469e-06, No Iterations 18
smoothSolver:  Solving for Uy, Initial residual = 0.000670744, Final residual = 9.24835e-06, No Iterations 22
DICPCG:  Solving for p, Initial residual = 0.000708845, Final residual = 3.35323e-05, No Iterations 113
time step continuity errors : sum local = 6.04086e-09, global = -9.1385e-20, cumulative = -2.04563e-18
DICPCG:  Solving for p, Initial residual = 0.000668106, Final residual = 9.32616e-07, No Iterations 133
time step continuity errors : sum local = 1.68124e-10, global = 2.30502e-20, cumulative = -2.02258e-18
ExecutionTime = 5.24 s  ClockTime = 6 s

Time = 0.0475

Courant Number mean: 0.109285 max: 0.484954
smoothSolver:  Solving for Ux, Initial residual = 0.000304342, Final residual = 9.13549e-06, No Iterations 18
smoothSolver:  Solving for Uy, Initial residual = 0.000645535, Final residual = 8.90944e-06, No Iterations 22
DICPCG:  Solving for p, Initial residual = 0.000599887, Final residual = 2.87809e-05, No Iterations 110
time step continuity errors : sum local = 5.20382e-09, global = -8.36399e-20, cumulative = -2.10622e-18
DICPCG:  Solving for p, Initial residual = 0.000570108, Final residual = 8.91623e-07, No Iterations 131
time step continuity errors : sum local = 1.60675e-10, global = 7.38482e-20, cumulative = -2.03237e-18
ExecutionTime = 5.3 s  ClockTime = 6 s

Time = 0.048

Courant Number mean: 0.109379 max: 0.484965
smoothSolver:  Solving for Ux, Initial residual = 0.000295257, Final residual = 8.87715e-06, No Iterations 18
smoothSolver:  Solving for Uy, Initial residual = 0.000628201, Final residual = 8.6888e-06, No Iterations 22
DICPCG:  Solving for p, Initial residual = 0.000567568, Final residual = 2.7242e-05, No Iterations 55
time step continuity errors : sum local = 5.64893e-09, global = -3.69524e-20, cumulative = -2.06933e-18
DICPCG:  Solving for p, Initial residual = 0.000537473, Final residual = 9.94489e-07, No Iterations 130
time step continuity errors : sum local = 1.79445e-10, global = -6.20368e-20, cumulative = -2.13136e-18
ExecutionTime = 5.34 s  ClockTime = 6 s

Time = 0.0485

Courant Number mean: 0.10947 max: 0.484976
smoothSolver:  Solving for Ux, Initial residual = 0.000289425, Final residual = 8.69011e-06, No Iterations 18
smoothSolver:  Solving for Uy, Initial residual = 0.000608901, Final residual = 8.41204e-06, No Iterations 22
DICPCG:  Solving for p, Initial residual = 0.00057823, Final residual = 2.8176e-05, No Iterations 96
time step continuity errors : sum local = 5.09372e-09, global = -2.52945e-20, cumulative = -2.15666e-18
DICPCG:  Solving for p, Initial residual = 0.000543288, Final residual = 7.31945e-07, No Iterations 132
time step continuity errors : sum local = 1.31798e-10, global = -3.41702e-20, cumulative = -2.19083e-18
ExecutionTime = 5.39 s  ClockTime = 6 s

Time = 0.049

Courant Number mean: 0.109559 max: 0.484986
smoothSolver:  Solving for Ux, Initial residual = 0.000279913, Final residual = 8.4104e-06, No Iterations 18
smoothSolver:  Solving for Uy, Initial residual = 0.000596058, Final residual = 8.2416e-06, No Iterations 22
DICPCG:  Solving for p, Initial residual = 0.000509026, Final residual = 2.5243e-05, No Iterations 56
time step continuity errors : sum local = 5.60736e-09, global = 1.18197e-19, cumulative = -2.07263e-18
DICPCG:  Solving for p, Initial residual = 0.000480379, Final residual = 9.41831e-07, No Iterations 128
time step continuity errors : sum local = 1.69722e-10, global = 1.56949e-20, cumulative = -2.05694e-18
ExecutionTime = 5.43 s  ClockTime = 6 s

Time = 0.0495

Courant Number mean: 0.109645 max: 0.484996
smoothSolver:  Solving for Ux, Initial residual = 0.000275827, Final residual = 8.27421e-06, No Iterations 18
smoothSolver:  Solving for Uy, Initial residual = 0.000575332, Final residual = 9.6471e-06, No Iterations 21
DICPCG:  Solving for p, Initial residual = 0.000577824, Final residual = 2.77324e-05, No Iterations 114
time step continuity errors : sum local = 4.99871e-09, global = -2.39286e-20, cumulative = -2.08086e-18
DICPCG:  Solving for p, Initial residual = 0.000546517, Final residual = 8.06018e-07, No Iterations 133
time step continuity errors : sum local = 1.45144e-10, global = 2.7819e-20, cumulative = -2.05305e-18
ExecutionTime = 5.48 s  ClockTime = 6 s

Time = 0.05

Courant Number mean: 0.109729 max: 0.485006
smoothSolver:  Solving for Ux, Initial residual = 0.000265173, Final residual = 9.67246e-06, No Iterations 17
smoothSolver:  Solving for Uy, Initial residual = 0.000565651, Final residual = 9.49736e-06, No Iterations 21
DICPCG:  Solving for p, Initial residual = 0.000548097, Final residual = 2.61071e-05, No Iterations 112
time step continuity errors : sum local = 4.70815e-09, global = 7.64506e-21, cumulative = -2.0454e-18
DICPCG:  Solving for p, Initial residual = 0.000520557, Final residual = 8.16749e-07, No Iterations 131
time step continuity errors : sum local = 1.47233e-10, global = 7.48416e-20, cumulative = -1.97056e-18
ExecutionTime = 5.56 s  ClockTime = 6 s

Time = 0.0505

Courant Number mean: 0.109811 max: 0.485015
smoothSolver:  Solving for Ux, Initial residual = 0.00025819, Final residual = 9.43901e-06, No Iterations 17
smoothSolver:  Solving for Uy, Initial residual = 0.000549077, Final residual = 9.2251e-06, No Iterations 21
DICPCG:  Solving for p, Initial residual = 0.000505487, Final residual = 2.23879e-05, No Iterations 54
time step continuity errors : sum local = 4.29352e-09, global = -1.00585e-19, cumulative = -2.07114e-18
DICPCG:  Solving for p, Initial residual = 0.000479783, Final residual = 7.8747e-07, No Iterations 129
time step continuity errors : sum local = 1.42204e-10, global = -7.41302e-20, cumulative = -2.14527e-18
ExecutionTime = 5.6 s  ClockTime = 6 s

Time = 0.051

Courant Number mean: 0.10989 max: 0.485024
smoothSolver:  Solving for Ux, Initial residual = 0.000250488, Final residual = 9.15829e-06, No Iterations 17
smoothSolver:  Solving for Uy, Initial residual = 0.000536646, Final residual = 9.01053e-06, No Iterations 21
DICPCG:  Solving for p, Initial residual = 0.000492673, Final residual = 2.11635e-05, No Iterations 93
time step continuity errors : sum local = 3.81497e-09, global = -6.83999e-20, cumulative = -2.21367e-18
DICPCG:  Solving for p, Initial residual = 0.000468819, Final residual = 9.49084e-07, No Iterations 129
time step continuity errors : sum local = 1.71164e-10, global = 9.87456e-20, cumulative = -2.11493e-18
ExecutionTime = 5.65 s  ClockTime = 6 s

Time = 0.0515

Courant Number mean: 0.109967 max: 0.485033
smoothSolver:  Solving for Ux, Initial residual = 0.000245101, Final residual = 8.96234e-06, No Iterations 17
smoothSolver:  Solving for Uy, Initial residual = 0.000520622, Final residual = 8.74468e-06, No Iterations 21
DICPCG:  Solving for p, Initial residual = 0.000491512, Final residual = 2.4422e-05, No Iterations 53
time step continuity errors : sum local = 4.66104e-09, global = -1.5619e-19, cumulative = -2.27112e-18
DICPCG:  Solving for p, Initial residual = 0.000468777, Final residual = 9.41105e-07, No Iterations 130
time step continuity errors : sum local = 1.69934e-10, global = 3.62025e-20, cumulative = -2.23492e-18
ExecutionTime = 5.69 s  ClockTime = 6 s

Time = 0.052

Courant Number mean: 0.110043 max: 0.485041
smoothSolver:  Solving for Ux, Initial residual = 0.000237479, Final residual = 8.68259e-06, No Iterations 17
smoothSolver:  Solving for Uy, Initial residual = 0.000509155, Final residual = 8.54749e-06, No Iterations 21
DICPCG:  Solving for p, Initial residual = 0.000491804, Final residual = 2.44368e-05, No Iterations 93
time step continuity errors : sum local = 4.40527e-09, global = -5.4863e-20, cumulative = -2.28978e-18
DICPCG:  Solving for p, Initial residual = 0.000467419, Final residual = 8.79916e-07, No Iterations 130
time step continuity errors : sum local = 1.5874e-10, global = 1.61067e-20, cumulative = -2.27367e-18
ExecutionTime = 5.74 s  ClockTime = 6 s

Time = 0.0525

Courant Number mean: 0.110116 max: 0.485049
smoothSolver:  Solving for Ux, Initial residual = 0.000232518, Final residual = 8.50256e-06, No Iterations 17
smoothSolver:  Solving for Uy, Initial residual = 0.000493815, Final residual = 8.29343e-06, No Iterations 21
DICPCG:  Solving for p, Initial residual = 0.00048128, Final residual = 2.33096e-05, No Iterations 53
time step continuity errors : sum local = 4.54298e-09, global = 3.29805e-20, cumulative = -2.24069e-18
DICPCG:  Solving for p, Initial residual = 0.000457812, Final residual = 9.39943e-07, No Iterations 129
time step continuity errors : sum local = 1.69661e-10, global = 2.62688e-21, cumulative = -2.23806e-18
ExecutionTime = 5.78 s  ClockTime = 6 s

Time = 0.053

Courant Number mean: 0.110187 max: 0.485057
smoothSolver:  Solving for Ux, Initial residual = 0.000225138, Final residual = 9.9989e-06, No Iterations 16
smoothSolver:  Solving for Uy, Initial residual = 0.000483472, Final residual = 9.85683e-06, No Iterations 20
DICPCG:  Solving for p, Initial residual = 0.000497111, Final residual = 2.45164e-05, No Iterations 96
time step continuity errors : sum local = 4.41585e-09, global = 1.12243e-19, cumulative = -2.12582e-18
DICPCG:  Solving for p, Initial residual = 0.000474522, Final residual = 9.37054e-07, No Iterations 117
time step continuity errors : sum local = 1.70166e-10, global = -9.93845e-20, cumulative = -2.22521e-18
ExecutionTime = 5.83 s  ClockTime = 6 s

Time = 0.0535

Courant Number mean: 0.110256 max: 0.485065
smoothSolver:  Solving for Ux, Initial residual = 0.000220706, Final residual = 9.80591e-06, No Iterations 16
smoothSolver:  Solving for Uy, Initial residual = 0.000468414, Final residual = 9.55367e-06, No Iterations 20
DICPCG:  Solving for p, Initial residual = 0.000458215, Final residual = 2.05217e-05, No Iterations 54
time step continuity errors : sum local = 4.08151e-09, global = -4.39384e-20, cumulative = -2.26914e-18
DICPCG:  Solving for p, Initial residual = 0.000437372, Final residual = 9.46987e-07, No Iterations 129
time step continuity errors : sum local = 1.70914e-10, global = 1.4396e-20, cumulative = -2.25475e-18
ExecutionTime = 5.88 s  ClockTime = 6 s

Time = 0.054

Courant Number mean: 0.110323 max: 0.485073
smoothSolver:  Solving for Ux, Initial residual = 0.000213681, Final residual = 9.49189e-06, No Iterations 16
smoothSolver:  Solving for Uy, Initial residual = 0.000458848, Final residual = 9.35121e-06, No Iterations 20
DICPCG:  Solving for p, Initial residual = 0.000469568, Final residual = 2.27961e-05, No Iterations 96
time step continuity errors : sum local = 4.10914e-09, global = 4.43432e-20, cumulative = -2.21041e-18
DICPCG:  Solving for p, Initial residual = 0.000447938, Final residual = 9.45189e-07, No Iterations 117
time step continuity errors : sum local = 1.71799e-10, global = -5.34449e-20, cumulative = -2.26385e-18
ExecutionTime = 5.93 s  ClockTime = 7 s

Time = 0.0545

Courant Number mean: 0.110389 max: 0.48508
[...]
DICPCG:  Solving for p, Initial residual = 1.14353e-06, Final residual = 7.30834e-07, No Iterations 1
time step continuity errors : sum local = 1.36932e-10, global = 3.50598e-20, cumulative = -1.14988e-17
ExecutionTime = 20.92 s  ClockTime = 22 s

Time = 0.487

Courant Number mean: 0.112872 max: 0.485326
smoothSolver:  Solving for Ux, Initial residual = 1.22729e-06, Final residual = 1.22729e-06, No Iterations 0
smoothSolver:  Solving for Uy, Initial residual = 2.59817e-06, Final residual = 2.59817e-06, No Iterations 0
DICPCG:  Solving for p, Initial residual = 1.00587e-06, Final residual = 7.9227e-07, No Iterations 1
time step continuity errors : sum local = 1.47994e-10, global = -8.81728e-20, cumulative = -1.1587e-17
DICPCG:  Solving for p, Initial residual = 1.13298e-06, Final residual = 7.02058e-07, No Iterations 1
time step continuity errors : sum local = 1.31728e-10, global = -9.22163e-20, cumulative = -1.16792e-17
ExecutionTime = 20.92 s  ClockTime = 22 s

Time = 0.4875

Courant Number mean: 0.112872 max: 0.485326
smoothSolver:  Solving for Ux, Initial residual = 1.22418e-06, Final residual = 1.22418e-06, No Iterations 0
smoothSolver:  Solving for Uy, Initial residual = 2.59044e-06, Final residual = 2.59044e-06, No Iterations 0
DICPCG:  Solving for p, Initial residual = 1.01293e-06, Final residual = 7.29758e-07, No Iterations 1
time step continuity errors : sum local = 1.36711e-10, global = 1.25506e-19, cumulative = -1.15537e-17
DICPCG:  Solving for p, Initial residual = 1.02751e-06, Final residual = 6.84845e-07, No Iterations 1
time step continuity errors : sum local = 1.28609e-10, global = -1.38177e-20, cumulative = -1.15675e-17
ExecutionTime = 20.93 s  ClockTime = 22 s

Time = 0.488

Courant Number mean: 0.112872 max: 0.485326
smoothSolver:  Solving for Ux, Initial residual = 1.22119e-06, Final residual = 1.22119e-06, No Iterations 0
smoothSolver:  Solving for Uy, Initial residual = 2.58289e-06, Final residual = 2.58289e-06, No Iterations 0
DICPCG:  Solving for p, Initial residual = 9.80847e-07, Final residual = 9.80847e-07, No Iterations 0
time step continuity errors : sum local = 1.81951e-10, global = -7.35138e-20, cumulative = -1.1641e-17
DICPCG:  Solving for p, Initial residual = 1.14604e-06, Final residual = 6.00664e-07, No Iterations 1
time step continuity errors : sum local = 1.13429e-10, global = -4.82672e-20, cumulative = -1.16893e-17
ExecutionTime = 20.93 s  ClockTime = 22 s

Time = 0.4885

Courant Number mean: 0.112872 max: 0.485326
smoothSolver:  Solving for Ux, Initial residual = 1.21858e-06, Final residual = 1.21858e-06, No Iterations 0
smoothSolver:  Solving for Uy, Initial residual = 2.57682e-06, Final residual = 2.57682e-06, No Iterations 0
DICPCG:  Solving for p, Initial residual = 1.01874e-06, Final residual = 6.20283e-07, No Iterations 1
time step continuity errors : sum local = 1.16959e-10, global = -8.9921e-21, cumulative = -1.16983e-17
DICPCG:  Solving for p, Initial residual = 8.37806e-07, Final residual = 8.37806e-07, No Iterations 0
time step continuity errors : sum local = 1.56159e-10, global = -9.59069e-20, cumulative = -1.17942e-17
ExecutionTime = 20.94 s  ClockTime = 22 s

Time = 0.489

Courant Number mean: 0.112872 max: 0.485326
smoothSolver:  Solving for Ux, Initial residual = 1.21597e-06, Final residual = 1.21597e-06, No Iterations 0
smoothSolver:  Solving for Uy, Initial residual = 2.57055e-06, Final residual = 2.57055e-06, No Iterations 0
DICPCG:  Solving for p, Initial residual = 1.00764e-06, Final residual = 5.99754e-07, No Iterations 1
time step continuity errors : sum local = 1.13252e-10, global = -1.82051e-19, cumulative = -1.19762e-17
DICPCG:  Solving for p, Initial residual = 9.53632e-07, Final residual = 9.53632e-07, No Iterations 0
time step continuity errors : sum local = 1.77028e-10, global = 6.11772e-20, cumulative = -1.1915e-17
ExecutionTime = 20.94 s  ClockTime = 22 s

Time = 0.4895

Courant Number mean: 0.112872 max: 0.485326
smoothSolver:  Solving for Ux, Initial residual = 1.21337e-06, Final residual = 1.21337e-06, No Iterations 0
smoothSolver:  Solving for Uy, Initial residual = 2.56442e-06, Final residual = 2.56442e-06, No Iterations 0
DICPCG:  Solving for p, Initial residual = 1.2227e-06, Final residual = 5.35173e-07, No Iterations 1
time step continuity errors : sum local = 1.01609e-10, global = 6.12334e-20, cumulative = -1.18538e-17
DICPCG:  Solving for p, Initial residual = 8.8493e-07, Final residual = 8.8493e-07, No Iterations 0
time step continuity errors : sum local = 1.64642e-10, global = -5.87382e-20, cumulative = -1.19125e-17
ExecutionTime = 20.94 s  ClockTime = 22 s

Time = 0.49

Courant Number mean: 0.112872 max: 0.485326
smoothSolver:  Solving for Ux, Initial residual = 1.21087e-06, Final residual = 1.21087e-06, No Iterations 0
smoothSolver:  Solving for Uy, Initial residual = 2.5584e-06, Final residual = 2.5584e-06, No Iterations 0
DICPCG:  Solving for p, Initial residual = 1.16119e-06, Final residual = 5.63583e-07, No Iterations 1
time step continuity errors : sum local = 1.06726e-10, global = 2.48323e-20, cumulative = -1.18877e-17
DICPCG:  Solving for p, Initial residual = 9.0667e-07, Final residual = 9.0667e-07, No Iterations 0
time step continuity errors : sum local = 1.68558e-10, global = -4.01721e-20, cumulative = -1.19279e-17
ExecutionTime = 20.97 s  ClockTime = 23 s

Time = 0.4905

Courant Number mean: 0.112872 max: 0.485326
smoothSolver:  Solving for Ux, Initial residual = 1.20825e-06, Final residual = 1.20825e-06, No Iterations 0
smoothSolver:  Solving for Uy, Initial residual = 2.55226e-06, Final residual = 2.55226e-06, No Iterations 0
DICPCG:  Solving for p, Initial residual = 1.17373e-06, Final residual = 5.88995e-07, No Iterations 1
time step continuity errors : sum local = 1.11305e-10, global = 4.90266e-20, cumulative = -1.18789e-17
DICPCG:  Solving for p, Initial residual = 9.50707e-07, Final residual = 9.50707e-07, No Iterations 0
time step continuity errors : sum local = 1.76493e-10, global = -1.25729e-19, cumulative = -1.20046e-17
ExecutionTime = 20.98 s  ClockTime = 23 s

Time = 0.491

Courant Number mean: 0.112872 max: 0.485326
smoothSolver:  Solving for Ux, Initial residual = 1.20569e-06, Final residual = 1.20569e-06, No Iterations 0
smoothSolver:  Solving for Uy, Initial residual = 2.54608e-06, Final residual = 2.54608e-06, No Iterations 0
DICPCG:  Solving for p, Initial residual = 1.22952e-06, Final residual = 6.15368e-07, No Iterations 1
time step continuity errors : sum local = 1.16058e-10, global = -1.30238e-20, cumulative = -1.20176e-17
DICPCG:  Solving for p, Initial residual = 9.93499e-07, Final residual = 9.93499e-07, No Iterations 0
time step continuity errors : sum local = 1.84206e-10, global = -3.01935e-20, cumulative = -1.20478e-17
ExecutionTime = 20.99 s  ClockTime = 23 s

Time = 0.4915

Courant Number mean: 0.112872 max: 0.485326
smoothSolver:  Solving for Ux, Initial residual = 1.20305e-06, Final residual = 1.20305e-06, No Iterations 0
smoothSolver:  Solving for Uy, Initial residual = 2.53989e-06, Final residual = 2.53989e-06, No Iterations 0
DICPCG:  Solving for p, Initial residual = 1.28481e-06, Final residual = 6.50424e-07, No Iterations 1
time step continuity errors : sum local = 1.22378e-10, global = 1.16235e-20, cumulative = -1.20362e-17
DICPCG:  Solving for p, Initial residual = 1.04772e-06, Final residual = 7.58655e-07, No Iterations 1
time step continuity errors : sum local = 1.41886e-10, global = -5.07916e-20, cumulative = -1.2087e-17
ExecutionTime = 21 s  ClockTime = 23 s

Time = 0.492

Courant Number mean: 0.112872 max: 0.485326
smoothSolver:  Solving for Ux, Initial residual = 1.20003e-06, Final residual = 1.20003e-06, No Iterations 0
smoothSolver:  Solving for Uy, Initial residual = 2.53213e-06, Final residual = 2.53213e-06, No Iterations 0
DICPCG:  Solving for p, Initial residual = 1.02924e-06, Final residual = 7.73013e-07, No Iterations 1
time step continuity errors : sum local = 1.44478e-10, global = 2.39251e-20, cumulative = -1.20631e-17
DICPCG:  Solving for p, Initial residual = 1.12364e-06, Final residual = 7.1873e-07, No Iterations 1
time step continuity errors : sum local = 1.347e-10, global = 5.53229e-20, cumulative = -1.20077e-17
ExecutionTime = 21 s  ClockTime = 23 s

Time = 0.4925

Courant Number mean: 0.112872 max: 0.485326
smoothSolver:  Solving for Ux, Initial residual = 1.19711e-06, Final residual = 1.19711e-06, No Iterations 0
smoothSolver:  Solving for Uy, Initial residual = 2.52456e-06, Final residual = 2.52456e-06, No Iterations 0
DICPCG:  Solving for p, Initial residual = 1.03047e-06, Final residual = 7.55271e-07, No Iterations 1
time step continuity errors : sum local = 1.41292e-10, global = 8.35155e-21, cumulative = -1.19994e-17
DICPCG:  Solving for p, Initial residual = 1.07076e-06, Final residual = 7.17176e-07, No Iterations 1
time step continuity errors : sum local = 1.34434e-10, global = 4.90423e-20, cumulative = -1.19503e-17
ExecutionTime = 21.01 s  ClockTime = 23 s

Time = 0.493

Courant Number mean: 0.112872 max: 0.485326
smoothSolver:  Solving for Ux, Initial residual = 1.19427e-06, Final residual = 1.19427e-06, No Iterations 0
smoothSolver:  Solving for Uy, Initial residual = 2.51723e-06, Final residual = 2.51723e-06, No Iterations 0
DICPCG:  Solving for p, Initial residual = 1.02919e-06, Final residual = 7.15794e-07, No Iterations 1
time step continuity errors : sum local = 1.34193e-10, global = 1.7207e-20, cumulative = -1.19331e-17
DICPCG:  Solving for p, Initial residual = 1.0158e-06, Final residual = 6.96427e-07, No Iterations 1
time step continuity errors : sum local = 1.30712e-10, global = 4.25858e-20, cumulative = -1.18905e-17
ExecutionTime = 21.01 s  ClockTime = 23 s

Time = 0.4935

Courant Number mean: 0.112873 max: 0.485326
smoothSolver:  Solving for Ux, Initial residual = 1.19149e-06, Final residual = 1.19149e-06, No Iterations 0
smoothSolver:  Solving for Uy, Initial residual = 2.51015e-06, Final residual = 2.51015e-06, No Iterations 0
DICPCG:  Solving for p, Initial residual = 9.91183e-07, Final residual = 9.91183e-07, No Iterations 0
time step continuity errors : sum local = 1.83835e-10, global = 8.14587e-20, cumulative = -1.18091e-17
DICPCG:  Solving for p, Initial residual = 1.15773e-06, Final residual = 6.14047e-07, No Iterations 1
time step continuity errors : sum local = 1.15878e-10, global = -1.13675e-19, cumulative = -1.19228e-17
ExecutionTime = 21.01 s  ClockTime = 23 s

Time = 0.494

Courant Number mean: 0.112873 max: 0.485326
smoothSolver:  Solving for Ux, Initial residual = 1.18901e-06, Final residual = 1.18901e-06, No Iterations 0
smoothSolver:  Solving for Uy, Initial residual = 2.50432e-06, Final residual = 2.50432e-06, No Iterations 0
DICPCG:  Solving for p, Initial residual = 1.04225e-06, Final residual = 6.38225e-07, No Iterations 1
time step continuity errors : sum local = 1.20247e-10, global = -8.43582e-21, cumulative = -1.19312e-17
DICPCG:  Solving for p, Initial residual = 8.62135e-07, Final residual = 8.62135e-07, No Iterations 0
time step continuity errors : sum local = 1.60602e-10, global = -2.40556e-20, cumulative = -1.19552e-17
ExecutionTime = 21.02 s  ClockTime = 23 s

Time = 0.4945

Courant Number mean: 0.112873 max: 0.485326
smoothSolver:  Solving for Ux, Initial residual = 1.18643e-06, Final residual = 1.18643e-06, No Iterations 0
smoothSolver:  Solving for Uy, Initial residual = 2.49842e-06, Final residual = 2.49842e-06, No Iterations 0
DICPCG:  Solving for p, Initial residual = 1.03744e-06, Final residual = 6.26257e-07, No Iterations 1
time step continuity errors : sum local = 1.18105e-10, global = -7.66375e-20, cumulative = -1.20319e-17
DICPCG:  Solving for p, Initial residual = 9.92358e-07, Final residual = 9.92358e-07, No Iterations 0
time step continuity errors : sum local = 1.84087e-10, global = -8.44226e-20, cumulative = -1.21163e-17
ExecutionTime = 21.02 s  ClockTime = 23 s

Time = 0.495

Courant Number mean: 0.112873 max: 0.485326
smoothSolver:  Solving for Ux, Initial residual = 1.18388e-06, Final residual = 1.18388e-06, No Iterations 0
smoothSolver:  Solving for Uy, Initial residual = 2.49256e-06, Final residual = 2.49256e-06, No Iterations 0
DICPCG:  Solving for p, Initial residual = 1.26874e-06, Final residual = 5.65024e-07, No Iterations 1
time step continuity errors : sum local = 1.07085e-10, global = 1.75329e-19, cumulative = -1.1941e-17
DICPCG:  Solving for p, Initial residual = 9.28263e-07, Final residual = 9.28263e-07, No Iterations 0
time step continuity errors : sum local = 1.72549e-10, global = 3.44835e-20, cumulative = -1.19065e-17
ExecutionTime = 21.03 s  ClockTime = 23 s

Time = 0.4955

Courant Number mean: 0.112873 max: 0.485326
smoothSolver:  Solving for Ux, Initial residual = 1.18132e-06, Final residual = 1.18132e-06, No Iterations 0
smoothSolver:  Solving for Uy, Initial residual = 2.48687e-06, Final residual = 2.48687e-06, No Iterations 0
DICPCG:  Solving for p, Initial residual = 1.21144e-06, Final residual = 6.00239e-07, No Iterations 1
time step continuity errors : sum local = 1.13447e-10, global = -1.99882e-20, cumulative = -1.19265e-17
DICPCG:  Solving for p, Initial residual = 9.56831e-07, Final residual = 9.56831e-07, No Iterations 0
time step continuity errors : sum local = 1.77714e-10, global = 6.10477e-20, cumulative = -1.18654e-17
ExecutionTime = 21.03 s  ClockTime = 23 s

Time = 0.496

Courant Number mean: 0.112873 max: 0.485326
smoothSolver:  Solving for Ux, Initial residual = 1.17869e-06, Final residual = 1.17869e-06, No Iterations 0
smoothSolver:  Solving for Uy, Initial residual = 2.48098e-06, Final residual = 2.48098e-06, No Iterations 0
DICPCG:  Solving for p, Initial residual = 1.2313e-06, Final residual = 6.30927e-07, No Iterations 1
time step continuity errors : sum local = 1.18995e-10, global = -3.69127e-20, cumulative = -1.19023e-17
DICPCG:  Solving for p, Initial residual = 1.00642e-06, Final residual = 7.27505e-07, No Iterations 1
time step continuity errors : sum local = 1.36418e-10, global = -6.8435e-20, cumulative = -1.19708e-17
ExecutionTime = 21.04 s  ClockTime = 23 s

Time = 0.4965

Courant Number mean: 0.112873 max: 0.485326
smoothSolver:  Solving for Ux, Initial residual = 1.17551e-06, Final residual = 1.17551e-06, No Iterations 0
smoothSolver:  Solving for Uy, Initial residual = 2.47391e-06, Final residual = 2.47391e-06, No Iterations 0
DICPCG:  Solving for p, Initial residual = 9.80823e-07, Final residual = 9.80823e-07, No Iterations 0
time step continuity errors : sum local = 1.82074e-10, global = -2.42348e-20, cumulative = -1.1995e-17
DICPCG:  Solving for p, Initial residual = 1.12395e-06, Final residual = 7.02426e-07, No Iterations 1
time step continuity errors : sum local = 1.31919e-10, global = -7.22335e-20, cumulative = -1.20673e-17
ExecutionTime = 21.04 s  ClockTime = 23 s

Time = 0.497

Courant Number mean: 0.112873 max: 0.485326
smoothSolver:  Solving for Ux, Initial residual = 1.1728e-06, Final residual = 1.1728e-06, No Iterations 0
smoothSolver:  Solving for Uy, Initial residual = 2.46815e-06, Final residual = 2.46815e-06, No Iterations 0
DICPCG:  Solving for p, Initial residual = 1.16651e-06, Final residual = 6.89596e-07, No Iterations 1
time step continuity errors : sum local = 1.29627e-10, global = 5.06935e-20, cumulative = -1.20166e-17
DICPCG:  Solving for p, Initial residual = 9.49677e-07, Final residual = 9.49677e-07, No Iterations 0
time step continuity errors : sum local = 1.765e-10, global = -1.06766e-19, cumulative = -1.21233e-17
ExecutionTime = 21.04 s  ClockTime = 23 s

Time = 0.4975

Courant Number mean: 0.112873 max: 0.485326
smoothSolver:  Solving for Ux, Initial residual = 1.1701e-06, Final residual = 1.1701e-06, No Iterations 0
smoothSolver:  Solving for Uy, Initial residual = 2.46227e-06, Final residual = 2.46227e-06, No Iterations 0
DICPCG:  Solving for p, Initial residual = 1.15093e-06, Final residual = 7.24076e-07, No Iterations 1
time step continuity errors : sum local = 1.35863e-10, global = 7.91628e-20, cumulative = -1.20442e-17
DICPCG:  Solving for p, Initial residual = 1.13516e-06, Final residual = 7.31113e-07, No Iterations 1
time step continuity errors : sum local = 1.37153e-10, global = 1.2061e-21, cumulative = -1.2043e-17
ExecutionTime = 21.05 s  ClockTime = 23 s

Time = 0.498

Courant Number mean: 0.112873 max: 0.485326
smoothSolver:  Solving for Ux, Initial residual = 1.16686e-06, Final residual = 1.16686e-06, No Iterations 0
smoothSolver:  Solving for Uy, Initial residual = 2.45551e-06, Final residual = 2.45551e-06, No Iterations 0
DICPCG:  Solving for p, Initial residual = 1.00264e-06, Final residual = 7.97009e-07, No Iterations 1
time step continuity errors : sum local = 1.4905e-10, global = -6.47104e-20, cumulative = -1.21077e-17
DICPCG:  Solving for p, Initial residual = 1.13452e-06, Final residual = 7.08846e-07, No Iterations 1
time step continuity errors : sum local = 1.33185e-10, global = 7.65877e-20, cumulative = -1.20311e-17
ExecutionTime = 21.05 s  ClockTime = 23 s

Time = 0.4985

Courant Number mean: 0.112873 max: 0.485326
smoothSolver:  Solving for Ux, Initial residual = 1.16362e-06, Final residual = 1.16362e-06, No Iterations 0
smoothSolver:  Solving for Uy, Initial residual = 2.44891e-06, Final residual = 2.44891e-06, No Iterations 0
DICPCG:  Solving for p, Initial residual = 1.02168e-06, Final residual = 7.44034e-07, No Iterations 1
time step continuity errors : sum local = 1.39549e-10, global = 2.50743e-20, cumulative = -1.2006e-17
DICPCG:  Solving for p, Initial residual = 1.04532e-06, Final residual = 7.03272e-07, No Iterations 1
time step continuity errors : sum local = 1.32227e-10, global = 5.86011e-20, cumulative = -1.19474e-17
ExecutionTime = 21.06 s  ClockTime = 23 s

Time = 0.499

Courant Number mean: 0.112873 max: 0.485326
smoothSolver:  Solving for Ux, Initial residual = 1.16042e-06, Final residual = 1.16042e-06, No Iterations 0
smoothSolver:  Solving for Uy, Initial residual = 2.44257e-06, Final residual = 2.44257e-06, No Iterations 0
DICPCG:  Solving for p, Initial residual = 1.00752e-06, Final residual = 6.9198e-07, No Iterations 1
time step continuity errors : sum local = 1.30216e-10, global = 3.32776e-20, cumulative = -1.19141e-17
DICPCG:  Solving for p, Initial residual = 9.79317e-07, Final residual = 9.79317e-07, No Iterations 0
time step continuity errors : sum local = 1.82005e-10, global = -1.05284e-19, cumulative = -1.20194e-17
ExecutionTime = 21.06 s  ClockTime = 23 s

Time = 0.4995

Courant Number mean: 0.112873 max: 0.485326
smoothSolver:  Solving for Ux, Initial residual = 1.1577e-06, Final residual = 1.1577e-06, No Iterations 0
smoothSolver:  Solving for Uy, Initial residual = 2.4371e-06, Final residual = 2.4371e-06, No Iterations 0
DICPCG:  Solving for p, Initial residual = 1.19727e-06, Final residual = 5.90041e-07, No Iterations 1
time step continuity errors : sum local = 1.11873e-10, global = 7.74759e-20, cumulative = -1.19419e-17
DICPCG:  Solving for p, Initial residual = 9.65398e-07, Final residual = 9.65398e-07, No Iterations 0
time step continuity errors : sum local = 1.79524e-10, global = 1.31839e-19, cumulative = -1.18101e-17
ExecutionTime = 21.07 s  ClockTime = 23 s

Time = 0.5

Courant Number mean: 0.112873 max: 0.485326
smoothSolver:  Solving for Ux, Initial residual = 1.15509e-06, Final residual = 1.15509e-06, No Iterations 0
smoothSolver:  Solving for Uy, Initial residual = 2.43176e-06, Final residual = 2.43176e-06, No Iterations 0
DICPCG:  Solving for p, Initial residual = 1.25256e-06, Final residual = 5.67679e-07, No Iterations 1
time step continuity errors : sum local = 1.07869e-10, global = -7.83821e-20, cumulative = -1.18885e-17
DICPCG:  Solving for p, Initial residual = 9.22194e-07, Final residual = 9.22194e-07, No Iterations 0
time step continuity errors : sum local = 1.71762e-10, global = -1.04037e-21, cumulative = -1.18895e-17
ExecutionTime = 21.1 s  ClockTime = 23 s

End

