/*---------------------------------------------------------------------------*\
  =========                 |
  \\      /  F ield         | OpenFOAM: The Open Source CFD Toolbox
   \\    /   O peration     | Website:  https://openfoam.org
    \\  /    A nd           | Version:  7
     \\/     M anipulation  |
\*---------------------------------------------------------------------------*/
Build  : 7
Exec   : icoFoam
Date   : Feb 06 2025
Time   : 14:08:43
Host   : "c207-016.frontera.tacc.utexas.edu"
PID    : 206541
I/O    : uncollated
Case   : /work2/10249/ctshep3141/frontera/coe347/COE-347-Open-Foam/of-project-1/cavity-Re-250/100x100
nProcs : 1
sigFpe : Enabling floating point exception trapping (FOAM_SIGFPE).
fileModificationChecking : Monitoring run-time modified files using timeStampMaster (fileModificationSkew 10)
allowSystemOperations : Allowing user-supplied system call operations

// * * * * * * * * * * * * * * * * * * * * * * * * * * * * * * * * * * * * * //
Create time

Create mesh for time = 0

Reading transportProperties

Reading field p

Reading field U

Reading/calculating face flux field phi


Starting time loop

Time = 0.0005

Courant Number mean: 0 max: 0
smoothSolver:  Solving for Ux, Initial residual = 1, Final residual = 9.48613e-07, No Iterations 5
smoothSolver:  Solving for Uy, Initial residual = 0, Final residual = 0, No Iterations 0
DICPCG:  Solving for p, Initial residual = 1, Final residual = 0.0478668, No Iterations 121
time step continuity errors : sum local = 1.42854e-06, global = 3.63959e-22, cumulative = 3.63959e-22
DICPCG:  Solving for p, Initial residual = 0.244607, Final residual = 7.19475e-07, No Iterations 172
time step continuity errors : sum local = 4.46572e-11, global = 9.63337e-21, cumulative = 9.99733e-21
ExecutionTime = 0.12 s  ClockTime = 1 s

Time = 0.001

Courant Number mean: 0.00360344 max: 0.124967
smoothSolver:  Solving for Ux, Initial residual = 0.286664, Final residual = 7.18383e-06, No Iterations 4
smoothSolver:  Solving for Uy, Initial residual = 0.327053, Final residual = 1.0417e-06, No Iterations 5
DICPCG:  Solving for p, Initial residual = 0.153726, Final residual = 0.00733774, No Iterations 118
time step continuity errors : sum local = 4.47289e-07, global = -2.29292e-22, cumulative = 9.76804e-21
DICPCG:  Solving for p, Initial residual = 0.0531526, Final residual = 8.09311e-07, No Iterations 165
time step continuity errors : sum local = 5.27588e-11, global = 2.62079e-20, cumulative = 3.59759e-20
ExecutionTime = 0.17 s  ClockTime = 1 s

Time = 0.0015

Courant Number mean: 0.00635132 max: 0.206573
smoothSolver:  Solving for Ux, Initial residual = 0.152148, Final residual = 4.01591e-06, No Iterations 4
smoothSolver:  Solving for Uy, Initial residual = 0.175155, Final residual = 7.02221e-06, No Iterations 4
DICPCG:  Solving for p, Initial residual = 0.0938907, Final residual = 0.00433038, No Iterations 118
time step continuity errors : sum local = 2.97714e-07, global = -1.07699e-20, cumulative = 2.5206e-20
DICPCG:  Solving for p, Initial residual = 0.0337569, Final residual = 8.53856e-07, No Iterations 155
time step continuity errors : sum local = 6.16017e-11, global = -1.17626e-20, cumulative = 1.34434e-20
ExecutionTime = 0.22 s  ClockTime = 1 s

Time = 0.002

Courant Number mean: 0.00854211 max: 0.261103
smoothSolver:  Solving for Ux, Initial residual = 0.0975271, Final residual = 2.69381e-06, No Iterations 4
smoothSolver:  Solving for Uy, Initial residual = 0.112659, Final residual = 4.56577e-06, No Iterations 4
DICPCG:  Solving for p, Initial residual = 0.0675948, Final residual = 0.0028243, No Iterations 118
time step continuity errors : sum local = 2.12087e-07, global = 1.23633e-20, cumulative = 2.58066e-20
DICPCG:  Solving for p, Initial residual = 0.0235671, Final residual = 8.84271e-07, No Iterations 153
time step continuity errors : sum local = 6.88582e-11, global = -7.72243e-21, cumulative = 1.80842e-20
ExecutionTime = 0.27 s  ClockTime = 1 s

Time = 0.0025

Courant Number mean: 0.0103458 max: 0.298546
smoothSolver:  Solving for Ux, Initial residual = 0.0695862, Final residual = 1.99564e-06, No Iterations 4
smoothSolver:  Solving for Uy, Initial residual = 0.0802556, Final residual = 3.28459e-06, No Iterations 4
DICPCG:  Solving for p, Initial residual = 0.0506494, Final residual = 0.00249823, No Iterations 61
time step continuity errors : sum local = 2.36564e-07, global = -2.94712e-20, cumulative = -1.1387e-20
DICPCG:  Solving for p, Initial residual = 0.0177641, Final residual = 9.3663e-07, No Iterations 151
time step continuity errors : sum local = 7.78028e-11, global = -5.82555e-21, cumulative = -1.72125e-20
ExecutionTime = 0.31 s  ClockTime = 1 s

Time = 0.003

Courant Number mean: 0.0118701 max: 0.325022
smoothSolver:  Solving for Ux, Initial residual = 0.0531537, Final residual = 1.57701e-06, No Iterations 4
smoothSolver:  Solving for Uy, Initial residual = 0.0613103, Final residual = 2.52985e-06, No Iterations 4
DICPCG:  Solving for p, Initial residual = 0.0400025, Final residual = 0.00196765, No Iterations 59
time step continuity errors : sum local = 1.78735e-07, global = -6.71764e-21, cumulative = -2.39301e-20
DICPCG:  Solving for p, Initial residual = 0.0138586, Final residual = 9.2216e-07, No Iterations 151
time step continuity errors : sum local = 8.01035e-11, global = -2.76886e-21, cumulative = -2.6699e-20
ExecutionTime = 0.34 s  ClockTime = 1 s

Time = 0.0035

Courant Number mean: 0.0132091 max: 0.344319
smoothSolver:  Solving for Ux, Initial residual = 0.0426982, Final residual = 1.30515e-06, No Iterations 4
smoothSolver:  Solving for Uy, Initial residual = 0.0490254, Final residual = 2.03683e-06, No Iterations 4
DICPCG:  Solving for p, Initial residual = 0.0332369, Final residual = 0.00148501, No Iterations 59
time step continuity errors : sum local = 1.47423e-07, global = -4.24846e-21, cumulative = -3.09475e-20
DICPCG:  Solving for p, Initial residual = 0.0113566, Final residual = 8.92756e-07, No Iterations 151
time step continuity errors : sum local = 8.08012e-11, global = 2.04352e-20, cumulative = -1.05122e-20
ExecutionTime = 0.38 s  ClockTime = 1 s

Time = 0.004

Courant Number mean: 0.0144059 max: 0.358816
smoothSolver:  Solving for Ux, Initial residual = 0.0355616, Final residual = 1.11166e-06, No Iterations 4
smoothSolver:  Solving for Uy, Initial residual = 0.0407004, Final residual = 1.70025e-06, No Iterations 4
DICPCG:  Solving for p, Initial residual = 0.0243223, Final residual = 0.00107674, No Iterations 59
time step continuity errors : sum local = 1.07756e-07, global = 8.51298e-21, cumulative = -1.99925e-21
DICPCG:  Solving for p, Initial residual = 0.00878503, Final residual = 9.93175e-07, No Iterations 150
time step continuity errors : sum local = 9.19013e-11, global = -1.15576e-20, cumulative = -1.35568e-20
ExecutionTime = 0.42 s  ClockTime = 1 s

Time = 0.0045

Courant Number mean: 0.0154887 max: 0.370029
smoothSolver:  Solving for Ux, Initial residual = 0.0304086, Final residual = 9.69438e-07, No Iterations 4
smoothSolver:  Solving for Uy, Initial residual = 0.034699, Final residual = 1.45599e-06, No Iterations 4
DICPCG:  Solving for p, Initial residual = 0.0203784, Final residual = 0.000856291, No Iterations 59
time step continuity errors : sum local = 8.90382e-08, global = -1.22313e-20, cumulative = -2.57881e-20
DICPCG:  Solving for p, Initial residual = 0.00763437, Final residual = 8.61321e-07, No Iterations 151
time step continuity errors : sum local = 8.15523e-11, global = 6.49732e-21, cumulative = -1.92908e-20
ExecutionTime = 0.46 s  ClockTime = 1 s

Time = 0.005

Courant Number mean: 0.0164785 max: 0.37894
smoothSolver:  Solving for Ux, Initial residual = 0.026523, Final residual = 8.60793e-07, No Iterations 4
smoothSolver:  Solving for Uy, Initial residual = 0.0302263, Final residual = 1.27273e-06, No Iterations 4
DICPCG:  Solving for p, Initial residual = 0.0175164, Final residual = 0.000858667, No Iterations 58
time step continuity errors : sum local = 8.86984e-08, global = -4.85674e-20, cumulative = -6.78582e-20
DICPCG:  Solving for p, Initial residual = 0.0067632, Final residual = 9.33318e-07, No Iterations 150
time step continuity errors : sum local = 9.01147e-11, global = -4.07241e-21, cumulative = -7.19306e-20
ExecutionTime = 0.5 s  ClockTime = 1 s

Time = 0.0055

Courant Number mean: 0.0173901 max: 0.386197
smoothSolver:  Solving for Ux, Initial residual = 0.0235496, Final residual = 7.75021e-07, No Iterations 4
smoothSolver:  Solving for Uy, Initial residual = 0.0267641, Final residual = 1.13007e-06, No Iterations 4
DICPCG:  Solving for p, Initial residual = 0.0154391, Final residual = 0.000715544, No Iterations 58
time step continuity errors : sum local = 7.54987e-08, global = -6.98192e-22, cumulative = -7.26288e-20
DICPCG:  Solving for p, Initial residual = 0.00599824, Final residual = 9.27281e-07, No Iterations 150
time step continuity errors : sum local = 9.10104e-11, global = 2.02947e-20, cumulative = -5.2334e-20
ExecutionTime = 0.54 s  ClockTime = 1 s

Time = 0.006

Courant Number mean: 0.0182416 max: 0.392234
smoothSolver:  Solving for Ux, Initial residual = 0.0211874, Final residual = 9.09527e-06, No Iterations 3
smoothSolver:  Solving for Uy, Initial residual = 0.0240148, Final residual = 1.01621e-06, No Iterations 4
DICPCG:  Solving for p, Initial residual = 0.013757, Final residual = 0.000610744, No Iterations 58
time step continuity errors : sum local = 6.51907e-08, global = -1.61117e-21, cumulative = -5.39452e-20
DICPCG:  Solving for p, Initial residual = 0.0053212, Final residual = 9.81212e-07, No Iterations 148
time step continuity errors : sum local = 9.76475e-11, global = -2.14343e-20, cumulative = -7.53796e-20
ExecutionTime = 0.58 s  ClockTime = 1 s

Time = 0.0065

Courant Number mean: 0.0190503 max: 0.39735
smoothSolver:  Solving for Ux, Initial residual = 0.0192499, Final residual = 8.34014e-06, No Iterations 3
smoothSolver:  Solving for Uy, Initial residual = 0.021778, Final residual = 9.23174e-07, No Iterations 4
DICPCG:  Solving for p, Initial residual = 0.0124599, Final residual = 0.000530843, No Iterations 58
time step continuity errors : sum local = 5.74214e-08, global = 8.10884e-21, cumulative = -6.72707e-20
DICPCG:  Solving for p, Initial residual = 0.00485349, Final residual = 9.768e-07, No Iterations 148
time step continuity errors : sum local = 9.84021e-11, global = -4.79139e-20, cumulative = -1.15185e-19
ExecutionTime = 0.61 s  ClockTime = 1 s

Time = 0.007

Courant Number mean: 0.0198161 max: 0.401755
smoothSolver:  Solving for Ux, Initial residual = 0.0176215, Final residual = 7.6978e-06, No Iterations 3
smoothSolver:  Solving for Uy, Initial residual = 0.0199239, Final residual = 8.45748e-07, No Iterations 4
DICPCG:  Solving for p, Initial residual = 0.0114088, Final residual = 0.000464663, No Iterations 58
time step continuity errors : sum local = 5.07706e-08, global = -1.66475e-20, cumulative = -1.31832e-19
DICPCG:  Solving for p, Initial residual = 0.00442649, Final residual = 9.59237e-07, No Iterations 144
time step continuity errors : sum local = 9.77503e-11, global = 5.07058e-21, cumulative = -1.26762e-19
ExecutionTime = 0.65 s  ClockTime = 1 s

Time = 0.0075

Courant Number mean: 0.0205428 max: 0.405601
smoothSolver:  Solving for Ux, Initial residual = 0.0162562, Final residual = 7.14603e-06, No Iterations 3
smoothSolver:  Solving for Uy, Initial residual = 0.0183618, Final residual = 9.6676e-06, No Iterations 3
DICPCG:  Solving for p, Initial residual = 0.0105267, Final residual = 0.000511859, No Iterations 57
time step continuity errors : sum local = 5.5663e-08, global = 1.74215e-20, cumulative = -1.0934e-19
DICPCG:  Solving for p, Initial residual = 0.00419279, Final residual = 9.94816e-07, No Iterations 143
time step continuity errors : sum local = 1.02256e-10, global = -2.15091e-20, cumulative = -1.30849e-19
ExecutionTime = 0.69 s  ClockTime = 1 s

Time = 0.008

Courant Number mean: 0.0212345 max: 0.408997
smoothSolver:  Solving for Ux, Initial residual = 0.0150926, Final residual = 6.67413e-06, No Iterations 3
smoothSolver:  Solving for Uy, Initial residual = 0.0170273, Final residual = 8.97085e-06, No Iterations 3
DICPCG:  Solving for p, Initial residual = 0.00984892, Final residual = 0.000454995, No Iterations 57
time step continuity errors : sum local = 4.98887e-08, global = -1.60616e-20, cumulative = -1.46911e-19
DICPCG:  Solving for p, Initial residual = 0.00394165, Final residual = 9.34288e-07, No Iterations 143
time step continuity errors : sum local = 9.67868e-11, global = 1.47158e-20, cumulative = -1.32195e-19
ExecutionTime = 0.73 s  ClockTime = 1 s

Time = 0.0085

Courant Number mean: 0.0218935 max: 0.412024
smoothSolver:  Solving for Ux, Initial residual = 0.0140853, Final residual = 6.26341e-06, No Iterations 3
smoothSolver:  Solving for Uy, Initial residual = 0.0158731, Final residual = 8.36715e-06, No Iterations 3
DICPCG:  Solving for p, Initial residual = 0.00927403, Final residual = 0.000413374, No Iterations 57
time step continuity errors : sum local = 4.56449e-08, global = -5.96378e-21, cumulative = -1.38159e-19
DICPCG:  Solving for p, Initial residual = 0.00370398, Final residual = 8.53605e-07, No Iterations 143
time step continuity errors : sum local = 8.90417e-11, global = 2.99929e-20, cumulative = -1.08166e-19
ExecutionTime = 0.76 s  ClockTime = 1 s

Time = 0.009

Courant Number mean: 0.0225242 max: 0.414746
smoothSolver:  Solving for Ux, Initial residual = 0.0132011, Final residual = 5.90063e-06, No Iterations 3
smoothSolver:  Solving for Uy, Initial residual = 0.014865, Final residual = 7.83905e-06, No Iterations 3
DICPCG:  Solving for p, Initial residual = 0.00865097, Final residual = 0.000374815, No Iterations 57
time step continuity errors : sum local = 4.16531e-08, global = -1.59371e-20, cumulative = -1.24103e-19
DICPCG:  Solving for p, Initial residual = 0.00348563, Final residual = 9.4338e-07, No Iterations 142
time step continuity errors : sum local = 9.89711e-11, global = -2.06117e-20, cumulative = -1.44715e-19
ExecutionTime = 0.8 s  ClockTime = 1 s

Time = 0.0095

Courant Number mean: 0.0231274 max: 0.417212
smoothSolver:  Solving for Ux, Initial residual = 0.0124179, Final residual = 5.57778e-06, No Iterations 3
smoothSolver:  Solving for Uy, Initial residual = 0.0139776, Final residual = 7.37309e-06, No Iterations 3
DICPCG:  Solving for p, Initial residual = 0.00828999, Final residual = 0.000349348, No Iterations 57
time step continuity errors : sum local = 3.90066e-08, global = -6.17035e-20, cumulative = -2.06418e-19
DICPCG:  Solving for p, Initial residual = 0.00331059, Final residual = 8.65485e-07, No Iterations 142
time step continuity errors : sum local = 9.12958e-11, global = -2.69318e-22, cumulative = -2.06687e-19
ExecutionTime = 0.84 s  ClockTime = 1 s

Time = 0.01

Courant Number mean: 0.0237132 max: 0.41946
smoothSolver:  Solving for Ux, Initial residual = 0.0117236, Final residual = 5.28741e-06, No Iterations 3
smoothSolver:  Solving for Uy, Initial residual = 0.0131898, Final residual = 6.95897e-06, No Iterations 3
DICPCG:  Solving for p, Initial residual = 0.00783782, Final residual = 0.000319005, No Iterations 57
time step continuity errors : sum local = 3.58168e-08, global = 8.08449e-21, cumulative = -1.98603e-19
DICPCG:  Solving for p, Initial residual = 0.00314015, Final residual = 7.4552e-07, No Iterations 142
time step continuity errors : sum local = 7.90416e-11, global = -1.29251e-20, cumulative = -2.11528e-19
ExecutionTime = 0.91 s  ClockTime = 1 s

Time = 0.0105

Courant Number mean: 0.0242821 max: 0.42152
smoothSolver:  Solving for Ux, Initial residual = 0.0111052, Final residual = 5.02371e-06, No Iterations 3
smoothSolver:  Solving for Uy, Initial residual = 0.0124855, Final residual = 6.58829e-06, No Iterations 3
DICPCG:  Solving for p, Initial residual = 0.00742655, Final residual = 0.000366123, No Iterations 56
time step continuity errors : sum local = 4.08219e-08, global = 1.58019e-21, cumulative = -2.09948e-19
DICPCG:  Solving for p, Initial residual = 0.00304405, Final residual = 9.72891e-07, No Iterations 141
time step continuity errors : sum local = 1.03576e-10, global = 3.10155e-20, cumulative = -1.78932e-19
ExecutionTime = 0.95 s  ClockTime = 1 s

Time = 0.011

Courant Number mean: 0.0248329 max: 0.423418
smoothSolver:  Solving for Ux, Initial residual = 0.0105469, Final residual = 4.78504e-06, No Iterations 3
smoothSolver:  Solving for Uy, Initial residual = 0.0118525, Final residual = 6.25475e-06, No Iterations 3
DICPCG:  Solving for p, Initial residual = 0.00710947, Final residual = 0.000341859, No Iterations 56
time step continuity errors : sum local = 3.82702e-08, global = 7.28841e-21, cumulative = -1.71644e-19
DICPCG:  Solving for p, Initial residual = 0.00293077, Final residual = 8.8904e-07, No Iterations 141
time step continuity errors : sum local = 9.5043e-11, global = -6.51336e-20, cumulative = -2.36777e-19
ExecutionTime = 0.98 s  ClockTime = 1 s

Time = 0.0115

Courant Number mean: 0.0253663 max: 0.425174
smoothSolver:  Solving for Ux, Initial residual = 0.0100405, Final residual = 4.56957e-06, No Iterations 3
smoothSolver:  Solving for Uy, Initial residual = 0.0112803, Final residual = 5.95296e-06, No Iterations 3
DICPCG:  Solving for p, Initial residual = 0.00681346, Final residual = 0.000320086, No Iterations 56
time step continuity errors : sum local = 3.59703e-08, global = 6.30763e-20, cumulative = -1.73701e-19
DICPCG:  Solving for p, Initial residual = 0.00281076, Final residual = 8.26387e-07, No Iterations 141
time step continuity errors : sum local = 8.86805e-11, global = 3.31097e-20, cumulative = -1.40591e-19
ExecutionTime = 1.02 s  ClockTime = 1 s

Time = 0.012

Courant Number mean: 0.0258828 max: 0.426804
smoothSolver:  Solving for Ux, Initial residual = 0.00957796, Final residual = 4.37322e-06, No Iterations 3
smoothSolver:  Solving for Uy, Initial residual = 0.0107603, Final residual = 5.67855e-06, No Iterations 3
DICPCG:  Solving for p, Initial residual = 0.00656945, Final residual = 0.00029896, No Iterations 56
time step continuity errors : sum local = 3.37109e-08, global = -2.44799e-20, cumulative = -1.65071e-19
DICPCG:  Solving for p, Initial residual = 0.0027013, Final residual = 9.96357e-07, No Iterations 140
time step continuity errors : sum local = 1.07219e-10, global = -8.25985e-21, cumulative = -1.73331e-19
ExecutionTime = 1.06 s  ClockTime = 1 s

Time = 0.0125

Courant Number mean: 0.0263842 max: 0.428324
smoothSolver:  Solving for Ux, Initial residual = 0.0091543, Final residual = 4.19276e-06, No Iterations 3
smoothSolver:  Solving for Uy, Initial residual = 0.0102861, Final residual = 5.42812e-06, No Iterations 3
DICPCG:  Solving for p, Initial residual = 0.00630181, Final residual = 0.000283299, No Iterations 56
time step continuity errors : sum local = 3.20315e-08, global = -2.57625e-20, cumulative = -1.99094e-19
DICPCG:  Solving for p, Initial residual = 0.00260803, Final residual = 9.59953e-07, No Iterations 140
time step continuity errors : sum local = 1.03647e-10, global = 3.42458e-20, cumulative = -1.64848e-19
ExecutionTime = 1.09 s  ClockTime = 2 s

Time = 0.013

Courant Number mean: 0.0268708 max: 0.429745
smoothSolver:  Solving for Ux, Initial residual = 0.00876458, Final residual = 4.02606e-06, No Iterations 3
smoothSolver:  Solving for Uy, Initial residual = 0.00985221, Final residual = 5.1985e-06, No Iterations 3
DICPCG:  Solving for p, Initial residual = 0.00606626, Final residual = 0.000267138, No Iterations 56
time step continuity errors : sum local = 3.02972e-08, global = -3.36835e-20, cumulative = -1.98531e-19
DICPCG:  Solving for p, Initial residual = 0.00251326, Final residual = 9.87975e-07, No Iterations 139
time step continuity errors : sum local = 1.06979e-10, global = -1.5852e-20, cumulative = -2.14383e-19
ExecutionTime = 1.13 s  ClockTime = 2 s

Time = 0.0135

Courant Number mean: 0.0273433 max: 0.431078
smoothSolver:  Solving for Ux, Initial residual = 0.00840977, Final residual = 3.87167e-06, No Iterations 3
smoothSolver:  Solving for Uy, Initial residual = 0.00945317, Final residual = 4.98728e-06, No Iterations 3
DICPCG:  Solving for p, Initial residual = 0.00585609, Final residual = 0.000252834, No Iterations 56
time step continuity errors : sum local = 2.87531e-08, global = -1.59859e-20, cumulative = -2.30369e-19
DICPCG:  Solving for p, Initial residual = 0.00242629, Final residual = 9.48045e-07, No Iterations 139
time step continuity errors : sum local = 1.02945e-10, global = 7.07467e-21, cumulative = -2.23295e-19
ExecutionTime = 1.17 s  ClockTime = 2 s

Time = 0.014

Courant Number mean: 0.0278022 max: 0.432331
smoothSolver:  Solving for Ux, Initial residual = 0.00808338, Final residual = 3.72813e-06, No Iterations 3
smoothSolver:  Solving for Uy, Initial residual = 0.00908503, Final residual = 4.79235e-06, No Iterations 3
DICPCG:  Solving for p, Initial residual = 0.0056662, Final residual = 0.000239795, No Iterations 56
time step continuity errors : sum local = 2.73436e-08, global = 2.10888e-20, cumulative = -2.02206e-19
DICPCG:  Solving for p, Initial residual = 0.0023441, Final residual = 9.76027e-07, No Iterations 138
time step continuity errors : sum local = 1.06224e-10, global = 1.24026e-20, cumulative = -1.89803e-19
ExecutionTime = 1.2 s  ClockTime = 2 s

Time = 0.0145

Courant Number mean: 0.028248 max: 0.433512
smoothSolver:  Solving for Ux, Initial residual = 0.0077815, Final residual = 3.59443e-06, No Iterations 3
smoothSolver:  Solving for Uy, Initial residual = 0.0087445, Final residual = 4.61196e-06, No Iterations 3
DICPCG:  Solving for p, Initial residual = 0.00549551, Final residual = 0.000228227, No Iterations 56
time step continuity errors : sum local = 2.60878e-08, global = -2.89443e-20, cumulative = -2.18747e-19
DICPCG:  Solving for p, Initial residual = 0.00226795, Final residual = 9.07224e-07, No Iterations 138
time step continuity errors : sum local = 9.89868e-11, global = -3.27844e-20, cumulative = -2.51532e-19
ExecutionTime = 1.24 s  ClockTime = 2 s

Time = 0.015

Courant Number mean: 0.028685 max: 0.434628
smoothSolver:  Solving for Ux, Initial residual = 0.00750067, Final residual = 3.47078e-06, No Iterations 3
smoothSolver:  Solving for Uy, Initial residual = 0.0084286, Final residual = 4.44448e-06, No Iterations 3
DICPCG:  Solving for p, Initial residual = 0.00533117, Final residual = 0.000261108, No Iterations 55
time step continuity errors : sum local = 2.96759e-08, global = 3.03956e-21, cumulative = -2.48492e-19
DICPCG:  Solving for p, Initial residual = 0.00222566, Final residual = 8.88155e-07, No Iterations 138
time step continuity errors : sum local = 9.7129e-11, global = 3.79818e-20, cumulative = -2.1051e-19
ExecutionTime = 1.28 s  ClockTime = 2 s

Time = 0.0155

Courant Number mean: 0.0291143 max: 0.435684
smoothSolver:  Solving for Ux, Initial residual = 0.00723764, Final residual = 3.35549e-06, No Iterations 3
smoothSolver:  Solving for Uy, Initial residual = 0.00813483, Final residual = 4.28865e-06, No Iterations 3
DICPCG:  Solving for p, Initial residual = 0.00519096, Final residual = 0.000248681, No Iterations 55
time step continuity errors : sum local = 2.83286e-08, global = 3.52372e-20, cumulative = -1.75273e-19
DICPCG:  Solving for p, Initial residual = 0.00217445, Final residual = 8.10347e-07, No Iterations 138
time step continuity errors : sum local = 8.88214e-11, global = -2.36237e-20, cumulative = -1.98897e-19
ExecutionTime = 1.31 s  ClockTime = 2 s

Time = 0.016

Courant Number mean: 0.0295347 max: 0.436686
smoothSolver:  Solving for Ux, Initial residual = 0.00699049, Final residual = 3.2478e-06, No Iterations 3
smoothSolver:  Solving for Uy, Initial residual = 0.00786093, Final residual = 4.14326e-06, No Iterations 3
DICPCG:  Solving for p, Initial residual = 0.00505636, Final residual = 0.000237284, No Iterations 55
time step continuity errors : sum local = 2.70907e-08, global = -2.09485e-20, cumulative = -2.19845e-19
DICPCG:  Solving for p, Initial residual = 0.00211439, Final residual = 7.98176e-07, No Iterations 138
time step continuity errors : sum local = 8.76663e-11, global = 4.71688e-20, cumulative = -1.72677e-19
ExecutionTime = 1.35 s  ClockTime = 2 s

Time = 0.0165

Courant Number mean: 0.0299461 max: 0.437638
smoothSolver:  Solving for Ux, Initial residual = 0.00675773, Final residual = 3.14648e-06, No Iterations 3
smoothSolver:  Solving for Uy, Initial residual = 0.00760495, Final residual = 4.00732e-06, No Iterations 3
DICPCG:  Solving for p, Initial residual = 0.0050769, Final residual = 0.000229616, No Iterations 55
time step continuity errors : sum local = 2.62565e-08, global = -4.9541e-21, cumulative = -1.77631e-19
DICPCG:  Solving for p, Initial residual = 0.00207026, Final residual = 9.77164e-07, No Iterations 137
time step continuity errors : sum local = 1.07492e-10, global = 2.72577e-20, cumulative = -1.50373e-19
ExecutionTime = 1.38 s  ClockTime = 2 s

Time = 0.017

Courant Number mean: 0.0303492 max: 0.438544
smoothSolver:  Solving for Ux, Initial residual = 0.00654062, Final residual = 3.05084e-06, No Iterations 3
smoothSolver:  Solving for Uy, Initial residual = 0.00736529, Final residual = 3.87996e-06, No Iterations 3
DICPCG:  Solving for p, Initial residual = 0.00492446, Final residual = 0.000217926, No Iterations 55
time step continuity errors : sum local = 2.49787e-08, global = -2.23103e-21, cumulative = -1.52604e-19
DICPCG:  Solving for p, Initial residual = 0.00198891, Final residual = 9.86552e-07, No Iterations 137
time step continuity errors : sum local = 1.08725e-10, global = 2.4969e-23, cumulative = -1.52579e-19
ExecutionTime = 1.42 s  ClockTime = 2 s

Time = 0.0175

Courant Number mean: 0.0307438 max: 0.439409
smoothSolver:  Solving for Ux, Initial residual = 0.0063378, Final residual = 2.96046e-06, No Iterations 3
smoothSolver:  Solving for Uy, Initial residual = 0.00714015, Final residual = 3.76041e-06, No Iterations 3
DICPCG:  Solving for p, Initial residual = 0.00469295, Final residual = 0.000209334, No Iterations 55
time step continuity errors : sum local = 2.4037e-08, global = -9.67107e-21, cumulative = -1.6225e-19
DICPCG:  Solving for p, Initial residual = 0.0019473, Final residual = 9.38518e-07, No Iterations 137
time step continuity errors : sum local = 1.03624e-10, global = 3.60496e-20, cumulative = -1.26201e-19
ExecutionTime = 1.45 s  ClockTime = 2 s

Time = 0.018

Courant Number mean: 0.0311301 max: 0.440234
smoothSolver:  Solving for Ux, Initial residual = 0.00614716, Final residual = 2.87487e-06, No Iterations 3
smoothSolver:  Solving for Uy, Initial residual = 0.00692866, Final residual = 3.64795e-06, No Iterations 3
DICPCG:  Solving for p, Initial residual = 0.00458208, Final residual = 0.000200728, No Iterations 55
time step continuity errors : sum local = 2.30924e-08, global = 1.02999e-20, cumulative = -1.15901e-19
DICPCG:  Solving for p, Initial residual = 0.00190112, Final residual = 9.15517e-07, No Iterations 137
time step continuity errors : sum local = 1.0126e-10, global = 5.84956e-20, cumulative = -5.7405e-20
ExecutionTime = 1.49 s  ClockTime = 2 s

Time = 0.0185

Courant Number mean: 0.0315082 max: 0.441023
smoothSolver:  Solving for Ux, Initial residual = 0.0059675, Final residual = 2.7937e-06, No Iterations 3
smoothSolver:  Solving for Uy, Initial residual = 0.00672949, Final residual = 3.54203e-06, No Iterations 3
DICPCG:  Solving for p, Initial residual = 0.00447771, Final residual = 0.000193653, No Iterations 55
time step continuity errors : sum local = 2.23142e-08, global = -6.28696e-20, cumulative = -1.20275e-19
DICPCG:  Solving for p, Initial residual = 0.00185553, Final residual = 8.72625e-07, No Iterations 137
time step continuity errors : sum local = 9.66779e-11, global = 1.70914e-20, cumulative = -1.03183e-19
ExecutionTime = 1.53 s  ClockTime = 2 s

Time = 0.019

Courant Number mean: 0.0318786 max: 0.441778
smoothSolver:  Solving for Ux, Initial residual = 0.00579743, Final residual = 2.71666e-06, No Iterations 3
smoothSolver:  Solving for Uy, Initial residual = 0.00654163, Final residual = 3.44204e-06, No Iterations 3
DICPCG:  Solving for p, Initial residual = 0.00437961, Final residual = 0.00021772, No Iterations 54
time step continuity errors : sum local = 2.49778e-08, global = 3.2479e-20, cumulative = -7.07043e-20
DICPCG:  Solving for p, Initial residual = 0.00183669, Final residual = 8.7232e-07, No Iterations 137
time step continuity errors : sum local = 9.67922e-11, global = 2.48316e-20, cumulative = -4.58727e-20
ExecutionTime = 1.56 s  ClockTime = 2 s

Time = 0.0195

Courant Number mean: 0.0322413 max: 0.442501
smoothSolver:  Solving for Ux, Initial residual = 0.00563626, Final residual = 2.64415e-06, No Iterations 3
smoothSolver:  Solving for Uy, Initial residual = 0.00636417, Final residual = 3.34758e-06, No Iterations 3
DICPCG:  Solving for p, Initial residual = 0.00429204, Final residual = 0.000212019, No Iterations 54
time step continuity errors : sum local = 2.43517e-08, global = -3.60402e-21, cumulative = -4.94767e-20
DICPCG:  Solving for p, Initial residual = 0.00180857, Final residual = 8.3282e-07, No Iterations 137
time step continuity errors : sum local = 9.25519e-11, global = 4.95352e-20, cumulative = 5.84691e-23
ExecutionTime = 1.6 s  ClockTime = 2 s

Time = 0.02

Courant Number mean: 0.0325966 max: 0.443197
smoothSolver:  Solving for Ux, Initial residual = 0.00548315, Final residual = 2.5757e-06, No Iterations 3
smoothSolver:  Solving for Uy, Initial residual = 0.00619611, Final residual = 3.25813e-06, No Iterations 3
DICPCG:  Solving for p, Initial residual = 0.00421606, Final residual = 0.000204169, No Iterations 54
time step continuity errors : sum local = 2.34882e-08, global = 1.83382e-20, cumulative = 1.83967e-20
DICPCG:  Solving for p, Initial residual = 0.00176991, Final residual = 8.02523e-07, No Iterations 137
time step continuity errors : sum local = 8.93193e-11, global = 1.31265e-20, cumulative = 3.15232e-20
ExecutionTime = 1.66 s  ClockTime = 2 s

Time = 0.0205

Courant Number mean: 0.0329454 max: 0.443864
smoothSolver:  Solving for Ux, Initial residual = 0.00533777, Final residual = 2.51103e-06, No Iterations 3
smoothSolver:  Solving for Uy, Initial residual = 0.00603679, Final residual = 3.17336e-06, No Iterations 3
DICPCG:  Solving for p, Initial residual = 0.00430251, Final residual = 0.000197352, No Iterations 54
time step continuity errors : sum local = 2.27371e-08, global = 1.12055e-20, cumulative = 4.27286e-20
DICPCG:  Solving for p, Initial residual = 0.00173549, Final residual = 7.77127e-07, No Iterations 137
time step continuity errors : sum local = 8.6623e-11, global = 1.81255e-20, cumulative = 6.08542e-20
ExecutionTime = 1.7 s  ClockTime = 2 s

Time = 0.021

Courant Number mean: 0.0332872 max: 0.444506
smoothSolver:  Solving for Ux, Initial residual = 0.00519967, Final residual = 2.44966e-06, No Iterations 3
smoothSolver:  Solving for Uy, Initial residual = 0.00588565, Final residual = 3.09292e-06, No Iterations 3
DICPCG:  Solving for p, Initial residual = 0.004027, Final residual = 0.000193566, No Iterations 54
time step continuity errors : sum local = 2.23233e-08, global = -6.0633e-20, cumulative = 2.21145e-22
DICPCG:  Solving for p, Initial residual = 0.00170112, Final residual = 7.62454e-07, No Iterations 137
time step continuity errors : sum local = 8.51103e-11, global = -1.10873e-19, cumulative = -1.10652e-19
ExecutionTime = 1.74 s  ClockTime = 2 s

Time = 0.0215

Courant Number mean: 0.0336234 max: 0.445124
smoothSolver:  Solving for Ux, Initial residual = 0.00506917, Final residual = 2.39104e-06, No Iterations 3
smoothSolver:  Solving for Uy, Initial residual = 0.00574214, Final residual = 3.01646e-06, No Iterations 3
DICPCG:  Solving for p, Initial residual = 0.00395363, Final residual = 0.000188395, No Iterations 54
time step continuity errors : sum local = 2.17543e-08, global = -2.37106e-20, cumulative = -1.34362e-19
DICPCG:  Solving for p, Initial residual = 0.00166783, Final residual = 7.34848e-07, No Iterations 137
time step continuity errors : sum local = 8.21466e-11, global = 3.61476e-20, cumulative = -9.82147e-20
ExecutionTime = 1.77 s  ClockTime = 2 s

Time = 0.022

Courant Number mean: 0.033956 max: 0.44572
smoothSolver:  Solving for Ux, Initial residual = 0.00494516, Final residual = 2.33485e-06, No Iterations 3
smoothSolver:  Solving for Uy, Initial residual = 0.00560567, Final residual = 2.94371e-06, No Iterations 3
DICPCG:  Solving for p, Initial residual = 0.00388656, Final residual = 0.000183685, No Iterations 54
time step continuity errors : sum local = 2.12353e-08, global = 6.15521e-20, cumulative = -3.66626e-20
DICPCG:  Solving for p, Initial residual = 0.00163574, Final residual = 7.15755e-07, No Iterations 137
time step continuity errors : sum local = 8.01218e-11, global = -2.67608e-20, cumulative = -6.34234e-20
ExecutionTime = 1.81 s  ClockTime = 2 s

Time = 0.0225

Courant Number mean: 0.034284 max: 0.446295
smoothSolver:  Solving for Ux, Initial residual = 0.00482658, Final residual = 2.28084e-06, No Iterations 3
smoothSolver:  Solving for Uy, Initial residual = 0.00547575, Final residual = 2.8744e-06, No Iterations 3
DICPCG:  Solving for p, Initial residual = 0.00382148, Final residual = 0.000179302, No Iterations 54
time step continuity errors : sum local = 2.07517e-08, global = 5.50697e-20, cumulative = -8.35372e-21
DICPCG:  Solving for p, Initial residual = 0.0016063, Final residual = 6.99058e-07, No Iterations 137
time step continuity errors : sum local = 7.83554e-11, global = -6.07248e-20, cumulative = -6.90785e-20
ExecutionTime = 1.84 s  ClockTime = 2 s

Time = 0.023

Courant Number mean: 0.0346073 max: 0.44685
smoothSolver:  Solving for Ux, Initial residual = 0.00471317, Final residual = 2.22897e-06, No Iterations 3
smoothSolver:  Solving for Uy, Initial residual = 0.00535188, Final residual = 2.80835e-06, No Iterations 3
DICPCG:  Solving for p, Initial residual = 0.00375684, Final residual = 0.000175039, No Iterations 54
time step continuity errors : sum local = 2.02805e-08, global = -4.63495e-20, cumulative = -1.15428e-19
DICPCG:  Solving for p, Initial residual = 0.00157826, Final residual = 6.80872e-07, No Iterations 137
time step continuity errors : sum local = 7.64135e-11, global = 2.95815e-20, cumulative = -8.58465e-20
ExecutionTime = 1.88 s  ClockTime = 2 s

Time = 0.0235

Courant Number mean: 0.0349255 max: 0.447386
smoothSolver:  Solving for Ux, Initial residual = 0.00460451, Final residual = 2.17923e-06, No Iterations 3
smoothSolver:  Solving for Uy, Initial residual = 0.00523365, Final residual = 2.74527e-06, No Iterations 3
DICPCG:  Solving for p, Initial residual = 0.00369771, Final residual = 0.000171109, No Iterations 54
time step continuity errors : sum local = 1.98453e-08, global = 9.29027e-21, cumulative = -7.65563e-20
DICPCG:  Solving for p, Initial residual = 0.00155088, Final residual = 9.94897e-07, No Iterations 136
time step continuity errors : sum local = 1.11687e-10, global = -1.51403e-20, cumulative = -9.16965e-20
ExecutionTime = 1.92 s  ClockTime = 2 s

Time = 0.024

Courant Number mean: 0.0352385 max: 0.447904
smoothSolver:  Solving for Ux, Initial residual = 0.00450052, Final residual = 2.13139e-06, No Iterations 3
smoothSolver:  Solving for Uy, Initial residual = 0.00512068, Final residual = 2.68502e-06, No Iterations 3
DICPCG:  Solving for p, Initial residual = 0.00364152, Final residual = 0.000167356, No Iterations 54
time step continuity errors : sum local = 1.94293e-08, global = 5.54496e-20, cumulative = -3.62469e-20
DICPCG:  Solving for p, Initial residual = 0.00152427, Final residual = 9.8681e-07, No Iterations 136
time step continuity errors : sum local = 1.10901e-10, global = -2.11291e-20, cumulative = -5.7376e-20
ExecutionTime = 1.95 s  ClockTime = 2 s

Time = 0.0245

Courant Number mean: 0.0355469 max: 0.448405
smoothSolver:  Solving for Ux, Initial residual = 0.00440064, Final residual = 2.08563e-06, No Iterations 3
smoothSolver:  Solving for Uy, Initial residual = 0.00501266, Final residual = 2.6274e-06, No Iterations 3
DICPCG:  Solving for p, Initial residual = 0.00358559, Final residual = 0.000163764, No Iterations 54
time step continuity errors : sum local = 1.90306e-08, global = 5.97493e-20, cumulative = 2.37332e-21
DICPCG:  Solving for p, Initial residual = 0.00149945, Final residual = 9.55327e-07, No Iterations 136
time step continuity errors : sum local = 1.07483e-10, global = 2.77733e-20, cumulative = 3.01466e-20
ExecutionTime = 1.99 s  ClockTime = 2 s

Time = 0.025

Courant Number mean: 0.0358505 max: 0.448892
smoothSolver:  Solving for Ux, Initial residual = 0.0043048, Final residual = 2.04195e-06, No Iterations 3
smoothSolver:  Solving for Uy, Initial residual = 0.0049093, Final residual = 2.57223e-06, No Iterations 3
DICPCG:  Solving for p, Initial residual = 0.00352925, Final residual = 0.000160537, No Iterations 54
time step continuity errors : sum local = 1.86733e-08, global = -2.35316e-20, cumulative = 6.61506e-21
DICPCG:  Solving for p, Initial residual = 0.00147627, Final residual = 9.22634e-07, No Iterations 136
time step continuity errors : sum local = 1.03926e-10, global = 4.439e-21, cumulative = 1.10541e-20
ExecutionTime = 2.02 s  ClockTime = 2 s

Time = 0.0255

Courant Number mean: 0.0361498 max: 0.449363
smoothSolver:  Solving for Ux, Initial residual = 0.00421274, Final residual = 2.00018e-06, No Iterations 3
smoothSolver:  Solving for Uy, Initial residual = 0.00481034, Final residual = 2.5194e-06, No Iterations 3
DICPCG:  Solving for p, Initial residual = 0.00347405, Final residual = 0.000157436, No Iterations 54
time step continuity errors : sum local = 1.83305e-08, global = -4.1023e-20, cumulative = -2.9969e-20
DICPCG:  Solving for p, Initial residual = 0.00145375, Final residual = 8.86692e-07, No Iterations 136
time step continuity errors : sum local = 9.9995e-11, global = 8.88819e-21, cumulative = -2.10808e-20
ExecutionTime = 2.06 s  ClockTime = 3 s

Time = 0.026

Courant Number mean: 0.0364445 max: 0.449819
smoothSolver:  Solving for Ux, Initial residual = 0.00412415, Final residual = 1.9602e-06, No Iterations 3
smoothSolver:  Solving for Uy, Initial residual = 0.0047154, Final residual = 2.46874e-06, No Iterations 3
DICPCG:  Solving for p, Initial residual = 0.0034215, Final residual = 0.000154483, No Iterations 54
time step continuity errors : sum local = 1.80039e-08, global = -4.92741e-21, cumulative = -2.60082e-20
DICPCG:  Solving for p, Initial residual = 0.00143309, Final residual = 8.8074e-07, No Iterations 136
time step continuity errors : sum local = 9.94303e-11, global = -6.58521e-20, cumulative = -9.18603e-20
ExecutionTime = 2.09 s  ClockTime = 3 s

Time = 0.0265

Courant Number mean: 0.0367347 max: 0.450262
smoothSolver:  Solving for Ux, Initial residual = 0.00403978, Final residual = 1.92177e-06, No Iterations 3
smoothSolver:  Solving for Uy, Initial residual = 0.00462431, Final residual = 2.42011e-06, No Iterations 3
DICPCG:  Solving for p, Initial residual = 0.0033698, Final residual = 0.000151746, No Iterations 54
time step continuity errors : sum local = 1.7701e-08, global = -4.35991e-21, cumulative = -9.62202e-20
DICPCG:  Solving for p, Initial residual = 0.00141321, Final residual = 8.19036e-07, No Iterations 136
time step continuity errors : sum local = 9.25675e-11, global = 1.04055e-19, cumulative = 7.83443e-21
ExecutionTime = 2.13 s  ClockTime = 3 s

Time = 0.027

Courant Number mean: 0.0370205 max: 0.450692
smoothSolver:  Solving for Ux, Initial residual = 0.00395883, Final residual = 1.88473e-06, No Iterations 3
smoothSolver:  Solving for Uy, Initial residual = 0.00453683, Final residual = 2.37342e-06, No Iterations 3
DICPCG:  Solving for p, Initial residual = 0.00331956, Final residual = 0.000149324, No Iterations 54
time step continuity errors : sum local = 1.74322e-08, global = -4.63633e-20, cumulative = -3.85289e-20
DICPCG:  Solving for p, Initial residual = 0.00139391, Final residual = 8.36131e-07, No Iterations 136
time step continuity errors : sum local = 9.45883e-11, global = -3.87855e-20, cumulative = -7.73144e-20
ExecutionTime = 2.16 s  ClockTime = 3 s

Time = 0.0275

Courant Number mean: 0.037302 max: 0.451111
smoothSolver:  Solving for Ux, Initial residual = 0.00388105, Final residual = 1.849e-06, No Iterations 3
smoothSolver:  Solving for Uy, Initial residual = 0.0044528, Final residual = 2.32854e-06, No Iterations 3
DICPCG:  Solving for p, Initial residual = 0.00327232, Final residual = 0.000146862, No Iterations 54
time step continuity errors : sum local = 1.71596e-08, global = -1.49813e-20, cumulative = -9.22956e-20
DICPCG:  Solving for p, Initial residual = 0.00137515, Final residual = 7.6989e-07, No Iterations 136
time step continuity errors : sum local = 8.71864e-11, global = -7.16952e-21, cumulative = -9.94652e-20
ExecutionTime = 2.2 s  ClockTime = 3 s

Time = 0.028

Courant Number mean: 0.0375791 max: 0.451517
smoothSolver:  Solving for Ux, Initial residual = 0.0038062, Final residual = 1.81447e-06, No Iterations 3
smoothSolver:  Solving for Uy, Initial residual = 0.004372, Final residual = 2.28536e-06, No Iterations 3
DICPCG:  Solving for p, Initial residual = 0.00322511, Final residual = 0.000143739, No Iterations 54
time step continuity errors : sum local = 1.68109e-08, global = -6.82422e-20, cumulative = -1.67707e-19
DICPCG:  Solving for p, Initial residual = 0.00135746, Final residual = 7.95489e-07, No Iterations 136
time step continuity errors : sum local = 9.01628e-11, global = 5.83939e-21, cumulative = -1.61868e-19
ExecutionTime = 2.24 s  ClockTime = 3 s

Time = 0.0285

Courant Number mean: 0.0378521 max: 0.451913
smoothSolver:  Solving for Ux, Initial residual = 0.00373407, Final residual = 1.78107e-06, No Iterations 3
smoothSolver:  Solving for Uy, Initial residual = 0.00429425, Final residual = 2.24381e-06, No Iterations 3
DICPCG:  Solving for p, Initial residual = 0.00322889, Final residual = 0.000140773, No Iterations 54
time step continuity errors : sum local = 1.64798e-08, global = 2.71952e-20, cumulative = -1.34673e-19
DICPCG:  Solving for p, Initial residual = 0.00134135, Final residual = 7.36116e-07, No Iterations 136
time step continuity errors : sum local = 8.35144e-11, global = -2.53663e-20, cumulative = -1.60039e-19
ExecutionTime = 2.27 s  ClockTime = 3 s

Time = 0.029

Courant Number mean: 0.0381214 max: 0.452297
smoothSolver:  Solving for Ux, Initial residual = 0.0036644, Final residual = 1.74874e-06, No Iterations 3
smoothSolver:  Solving for Uy, Initial residual = 0.00421943, Final residual = 2.20379e-06, No Iterations 3
DICPCG:  Solving for p, Initial residual = 0.00330033, Final residual = 0.000161324, No Iterations 53
time step continuity errors : sum local = 1.88021e-08, global = -1.2146e-20, cumulative = -1.72185e-19
DICPCG:  Solving for p, Initial residual = 0.00133627, Final residual = 7.66634e-07, No Iterations 136
time step continuity errors : sum local = 8.70414e-11, global = 1.591e-20, cumulative = -1.56275e-19
ExecutionTime = 2.31 s  ClockTime = 3 s

Time = 0.0295

Courant Number mean: 0.0383868 max: 0.452673
smoothSolver:  Solving for Ux, Initial residual = 0.00359718, Final residual = 1.71742e-06, No Iterations 3
smoothSolver:  Solving for Uy, Initial residual = 0.00414742, Final residual = 2.1653e-06, No Iterations 3
DICPCG:  Solving for p, Initial residual = 0.0031975, Final residual = 0.000158404, No Iterations 53
time step continuity errors : sum local = 1.84743e-08, global = -2.13324e-20, cumulative = -1.77607e-19
DICPCG:  Solving for p, Initial residual = 0.00132716, Final residual = 7.00305e-07, No Iterations 136
time step continuity errors : sum local = 7.9578e-11, global = -5.31119e-20, cumulative = -2.30719e-19
ExecutionTime = 2.34 s  ClockTime = 3 s

Time = 0.03

Courant Number mean: 0.0386497 max: 0.453038
smoothSolver:  Solving for Ux, Initial residual = 0.00353247, Final residual = 1.68721e-06, No Iterations 3
smoothSolver:  Solving for Uy, Initial residual = 0.00407768, Final residual = 2.12811e-06, No Iterations 3
DICPCG:  Solving for p, Initial residual = 0.0032563, Final residual = 0.000153602, No Iterations 53
time step continuity errors : sum local = 1.79371e-08, global = -2.1282e-20, cumulative = -2.52001e-19
DICPCG:  Solving for p, Initial residual = 0.00131315, Final residual = 7.30892e-07, No Iterations 136
time step continuity errors : sum local = 8.31196e-11, global = 1.73916e-20, cumulative = -2.3461e-19
ExecutionTime = 2.41 s  ClockTime = 3 s

Time = 0.0305

Courant Number mean: 0.0389101 max: 0.453394
smoothSolver:  Solving for Ux, Initial residual = 0.00346975, Final residual = 1.65816e-06, No Iterations 3
smoothSolver:  Solving for Uy, Initial residual = 0.00401046, Final residual = 2.09224e-06, No Iterations 3
DICPCG:  Solving for p, Initial residual = 0.00303154, Final residual = 0.000132289, No Iterations 54
time step continuity errors : sum local = 1.55302e-08, global = -1.52086e-20, cumulative = -2.49818e-19
DICPCG:  Solving for p, Initial residual = 0.00127505, Final residual = 9.77473e-07, No Iterations 135
time step continuity errors : sum local = 1.11281e-10, global = 8.92432e-20, cumulative = -1.60575e-19
ExecutionTime = 2.45 s  ClockTime = 3 s

Time = 0.031

Courant Number mean: 0.0391682 max: 0.453741
smoothSolver:  Solving for Ux, Initial residual = 0.00340875, Final residual = 1.63015e-06, No Iterations 3
smoothSolver:  Solving for Uy, Initial residual = 0.00394558, Final residual = 2.05756e-06, No Iterations 3
DICPCG:  Solving for p, Initial residual = 0.00298897, Final residual = 0.000131771, No Iterations 54
time step continuity errors : sum local = 1.54807e-08, global = -1.48484e-20, cumulative = -1.75424e-19
DICPCG:  Solving for p, Initial residual = 0.00126613, Final residual = 9.81254e-07, No Iterations 135
time step continuity errors : sum local = 1.11823e-10, global = 7.16211e-20, cumulative = -1.03803e-19
ExecutionTime = 2.48 s  ClockTime = 3 s

Time = 0.0315

Courant Number mean: 0.0394231 max: 0.45408
smoothSolver:  Solving for Ux, Initial residual = 0.00334944, Final residual = 1.6031e-06, No Iterations 3
smoothSolver:  Solving for Uy, Initial residual = 0.00388303, Final residual = 2.02413e-06, No Iterations 3
DICPCG:  Solving for p, Initial residual = 0.0029547, Final residual = 0.000129754, No Iterations 54
time step continuity errors : sum local = 1.52534e-08, global = 5.61491e-20, cumulative = -4.76534e-20
DICPCG:  Solving for p, Initial residual = 0.00125107, Final residual = 9.68108e-07, No Iterations 135
time step continuity errors : sum local = 1.10428e-10, global = 2.35756e-21, cumulative = -4.52958e-20
ExecutionTime = 2.52 s  ClockTime = 3 s

Time = 0.032

Courant Number mean: 0.0396753 max: 0.454411
smoothSolver:  Solving for Ux, Initial residual = 0.00329228, Final residual = 1.5769e-06, No Iterations 3
smoothSolver:  Solving for Uy, Initial residual = 0.00382257, Final residual = 1.99181e-06, No Iterations 3
DICPCG:  Solving for p, Initial residual = 0.00292349, Final residual = 0.000128181, No Iterations 54
time step continuity errors : sum local = 1.50793e-08, global = -1.97725e-20, cumulative = -6.50683e-20
DICPCG:  Solving for p, Initial residual = 0.00123696, Final residual = 9.51939e-07, No Iterations 135
time step continuity errors : sum local = 1.08683e-10, global = 3.53023e-20, cumulative = -2.9766e-20
ExecutionTime = 2.55 s  ClockTime = 3 s

Time = 0.0325

Courant Number mean: 0.0399245 max: 0.454734
smoothSolver:  Solving for Ux, Initial residual = 0.00323725, Final residual = 1.55147e-06, No Iterations 3
smoothSolver:  Solving for Uy, Initial residual = 0.00376411, Final residual = 1.96056e-06, No Iterations 3
DICPCG:  Solving for p, Initial residual = 0.0028925, Final residual = 0.000126758, No Iterations 54
time step continuity errors : sum local = 1.49207e-08, global = 3.10719e-20, cumulative = 1.30593e-21
DICPCG:  Solving for p, Initial residual = 0.00122307, Final residual = 9.24622e-07, No Iterations 135
time step continuity errors : sum local = 1.05659e-10, global = -4.60287e-21, cumulative = -3.29694e-21
ExecutionTime = 2.58 s  ClockTime = 3 s

Time = 0.033

Courant Number mean: 0.0401707 max: 0.455049
smoothSolver:  Solving for Ux, Initial residual = 0.00318398, Final residual = 1.52676e-06, No Iterations 3
smoothSolver:  Solving for Uy, Initial residual = 0.00370755, Final residual = 1.93032e-06, No Iterations 3
DICPCG:  Solving for p, Initial residual = 0.00286121, Final residual = 0.000125124, No Iterations 54
time step continuity errors : sum local = 1.47382e-08, global = -3.74377e-21, cumulative = -7.04071e-21
DICPCG:  Solving for p, Initial residual = 0.00120937, Final residual = 9.04571e-07, No Iterations 135
time step continuity errors : sum local = 1.03459e-10, global = 1.03627e-20, cumulative = 3.32198e-21
ExecutionTime = 2.62 s  ClockTime = 3 s

Time = 0.0335

Courant Number mean: 0.0404139 max: 0.455359
smoothSolver:  Solving for Ux, Initial residual = 0.00313232, Final residual = 1.50274e-06, No Iterations 3
smoothSolver:  Solving for Uy, Initial residual = 0.0036528, Final residual = 1.90105e-06, No Iterations 3
DICPCG:  Solving for p, Initial residual = 0.00285607, Final residual = 0.000140582, No Iterations 53
time step continuity errors : sum local = 1.64993e-08, global = 1.77292e-21, cumulative = 5.09489e-21
DICPCG:  Solving for p, Initial residual = 0.00120239, Final residual = 9.20579e-07, No Iterations 135
time step continuity errors : sum local = 1.05381e-10, global = 2.90345e-20, cumulative = 3.41294e-20
ExecutionTime = 2.66 s  ClockTime = 3 s

Time = 0.034

Courant Number mean: 0.0406545 max: 0.455661
smoothSolver:  Solving for Ux, Initial residual = 0.00308222, Final residual = 1.47935e-06, No Iterations 3
smoothSolver:  Solving for Uy, Initial residual = 0.00359979, Final residual = 1.87274e-06, No Iterations 3
DICPCG:  Solving for p, Initial residual = 0.00283622, Final residual = 0.000139659, No Iterations 53
time step continuity errors : sum local = 1.63945e-08, global = -1.38266e-20, cumulative = 2.03028e-20
DICPCG:  Solving for p, Initial residual = 0.00120101, Final residual = 8.86645e-07, No Iterations 135
time step continuity errors : sum local = 1.01587e-10, global = 3.96015e-21, cumulative = 2.4263e-20
ExecutionTime = 2.69 s  ClockTime = 3 s

Time = 0.0345

Courant Number mean: 0.0408924 max: 0.455956
smoothSolver:  Solving for Ux, Initial residual = 0.00303377, Final residual = 1.45662e-06, No Iterations 3
smoothSolver:  Solving for Uy, Initial residual = 0.00354847, Final residual = 1.84531e-06, No Iterations 3
DICPCG:  Solving for p, Initial residual = 0.00277369, Final residual = 0.000137788, No Iterations 53
time step continuity errors : sum local = 1.61885e-08, global = -4.18537e-21, cumulative = 2.00776e-20
DICPCG:  Solving for p, Initial residual = 0.00118683, Final residual = 8.83145e-07, No Iterations 135
time step continuity errors : sum local = 1.01269e-10, global = -3.71873e-20, cumulative = -1.71097e-20
ExecutionTime = 2.72 s  ClockTime = 3 s

Time = 0.035

Courant Number mean: 0.0411275 max: 0.456245
smoothSolver:  Solving for Ux, Initial residual = 0.00298673, Final residual = 1.43451e-06, No Iterations 3
smoothSolver:  Solving for Uy, Initial residual = 0.00349863, Final residual = 1.8187e-06, No Iterations 3
DICPCG:  Solving for p, Initial residual = 0.00274445, Final residual = 0.000135614, No Iterations 53
time step continuity errors : sum local = 1.59444e-08, global = -1.24328e-20, cumulative = -2.95425e-20
DICPCG:  Solving for p, Initial residual = 0.00117536, Final residual = 8.44885e-07, No Iterations 135
time step continuity errors : sum local = 9.69637e-11, global = -4.75059e-21, cumulative = -3.42931e-20
ExecutionTime = 2.76 s  ClockTime = 3 s

Time = 0.0355

Courant Number mean: 0.0413598 max: 0.456529
smoothSolver:  Solving for Ux, Initial residual = 0.00294102, Final residual = 1.41301e-06, No Iterations 3
smoothSolver:  Solving for Uy, Initial residual = 0.00345032, Final residual = 1.79289e-06, No Iterations 3
DICPCG:  Solving for p, Initial residual = 0.00271506, Final residual = 0.000134424, No Iterations 53
time step continuity errors : sum local = 1.58133e-08, global = 1.7539e-20, cumulative = -1.67542e-20
DICPCG:  Solving for p, Initial residual = 0.00116398, Final residual = 8.3755e-07, No Iterations 135
time step continuity errors : sum local = 9.61995e-11, global = -3.22815e-21, cumulative = -1.99823e-20
ExecutionTime = 2.79 s  ClockTime = 3 s

Time = 0.036

Courant Number mean: 0.0415894 max: 0.456806
smoothSolver:  Solving for Ux, Initial residual = 0.00289648, Final residual = 1.39213e-06, No Iterations 3
smoothSolver:  Solving for Uy, Initial residual = 0.00340346, Final residual = 1.76783e-06, No Iterations 3
DICPCG:  Solving for p, Initial residual = 0.00268661, Final residual = 0.000132169, No Iterations 53
time step continuity errors : sum local = 1.556e-08, global = 4.70719e-20, cumulative = 2.70896e-20
DICPCG:  Solving for p, Initial residual = 0.00115388, Final residual = 8.03172e-07, No Iterations 135
time step continuity errors : sum local = 9.23292e-11, global = -1.03136e-20, cumulative = 1.67761e-20
ExecutionTime = 2.83 s  ClockTime = 3 s

Time = 0.0365

Courant Number mean: 0.0418164 max: 0.457078
smoothSolver:  Solving for Ux, Initial residual = 0.00285315, Final residual = 1.37185e-06, No Iterations 3
smoothSolver:  Solving for Uy, Initial residual = 0.00335796, Final residual = 1.74353e-06, No Iterations 3
DICPCG:  Solving for p, Initial residual = 0.00265854, Final residual = 0.000130777, No Iterations 53
time step continuity errors : sum local = 1.54055e-08, global = 2.11592e-20, cumulative = 3.79353e-20
DICPCG:  Solving for p, Initial residual = 0.00114254, Final residual = 7.87966e-07, No Iterations 135
time step continuity errors : sum local = 9.06562e-11, global = 2.26342e-20, cumulative = 6.05695e-20
ExecutionTime = 2.87 s  ClockTime = 3 s

Time = 0.037

Courant Number mean: 0.0420406 max: 0.457345
smoothSolver:  Solving for Ux, Initial residual = 0.00281092, Final residual = 1.35228e-06, No Iterations 3
smoothSolver:  Solving for Uy, Initial residual = 0.00331374, Final residual = 1.71992e-06, No Iterations 3
DICPCG:  Solving for p, Initial residual = 0.00264068, Final residual = 0.000127888, No Iterations 53
time step continuity errors : sum local = 1.50787e-08, global = -1.69364e-21, cumulative = 5.88758e-20
DICPCG:  Solving for p, Initial residual = 0.00113246, Final residual = 7.4801e-07, No Iterations 135
time step continuity errors : sum local = 8.61318e-11, global = -3.99289e-20, cumulative = 1.8947e-20
ExecutionTime = 2.9 s  ClockTime = 3 s

Time = 0.0375

Courant Number mean: 0.0422621 max: 0.457607
smoothSolver:  Solving for Ux, Initial residual = 0.00276978, Final residual = 1.33328e-06, No Iterations 3
smoothSolver:  Solving for Uy, Initial residual = 0.00327084, Final residual = 1.69699e-06, No Iterations 3
DICPCG:  Solving for p, Initial residual = 0.0027271, Final residual = 0.000123872, No Iterations 53
time step continuity errors : sum local = 1.46202e-08, global = -2.616e-20, cumulative = -7.21306e-21
DICPCG:  Solving for p, Initial residual = 0.00112123, Final residual = 9.93254e-07, No Iterations 134
time step continuity errors : sum local = 1.14489e-10, global = -2.29204e-20, cumulative = -3.01335e-20
ExecutionTime = 2.94 s  ClockTime = 3 s

Time = 0.038

Courant Number mean: 0.0424817 max: 0.457864
smoothSolver:  Solving for Ux, Initial residual = 0.00272976, Final residual = 1.31478e-06, No Iterations 3
smoothSolver:  Solving for Uy, Initial residual = 0.00322921, Final residual = 1.67472e-06, No Iterations 3
DICPCG:  Solving for p, Initial residual = 0.00277665, Final residual = 0.000123889, No Iterations 53
time step continuity errors : sum local = 1.46275e-08, global = 5.34451e-20, cumulative = 2.33116e-20
DICPCG:  Solving for p, Initial residual = 0.00112112, Final residual = 9.88144e-07, No Iterations 134
time step continuity errors : sum local = 1.13976e-10, global = -3.28936e-20, cumulative = -9.58208e-21
ExecutionTime = 2.97 s  ClockTime = 3 s

Time = 0.0385

Courant Number mean: 0.0426987 max: 0.458116
smoothSolver:  Solving for Ux, Initial residual = 0.00269126, Final residual = 1.29684e-06, No Iterations 3
smoothSolver:  Solving for Uy, Initial residual = 0.00318855, Final residual = 1.65304e-06, No Iterations 3
DICPCG:  Solving for p, Initial residual = 0.00255546, Final residual = 0.000124217, No Iterations 53
time step continuity errors : sum local = 1.46708e-08, global = 1.20788e-20, cumulative = 2.49673e-21
DICPCG:  Solving for p, Initial residual = 0.0011025, Final residual = 9.04545e-07, No Iterations 134
time step continuity errors : sum local = 1.04421e-10, global = -1.42648e-20, cumulative = -1.17681e-20
ExecutionTime = 3.01 s  ClockTime = 3 s

Time = 0.039

Courant Number mean: 0.0429131 max: 0.458364
smoothSolver:  Solving for Ux, Initial residual = 0.00265378, Final residual = 1.27931e-06, No Iterations 3
smoothSolver:  Solving for Uy, Initial residual = 0.00314918, Final residual = 1.63196e-06, No Iterations 3
DICPCG:  Solving for p, Initial residual = 0.00253553, Final residual = 0.000122668, No Iterations 53
time step continuity errors : sum local = 1.44984e-08, global = 4.16942e-20, cumulative = 2.99261e-20
DICPCG:  Solving for p, Initial residual = 0.00109399, Final residual = 9.82091e-07, No Iterations 133
time step continuity errors : sum local = 1.1345e-10, global = -2.82647e-20, cumulative = 1.66139e-21
ExecutionTime = 3.04 s  ClockTime = 4 s

Time = 0.0395

Courant Number mean: 0.0431251 max: 0.458607
smoothSolver:  Solving for Ux, Initial residual = 0.00261745, Final residual = 1.26222e-06, No Iterations 3
smoothSolver:  Solving for Uy, Initial residual = 0.00311088, Final residual = 1.61147e-06, No Iterations 3
DICPCG:  Solving for p, Initial residual = 0.00251424, Final residual = 0.000121436, No Iterations 53
time step continuity errors : sum local = 1.43605e-08, global = 3.52354e-20, cumulative = 3.68968e-20
DICPCG:  Solving for p, Initial residual = 0.00108355, Final residual = 9.95579e-07, No Iterations 131
time step continuity errors : sum local = 1.14946e-10, global = 6.04617e-20, cumulative = 9.73585e-20
ExecutionTime = 3.09 s  ClockTime = 4 s

Time = 0.04

Courant Number mean: 0.0433345 max: 0.458847
smoothSolver:  Solving for Ux, Initial residual = 0.00258207, Final residual = 1.24555e-06, No Iterations 3
smoothSolver:  Solving for Uy, Initial residual = 0.00307362, Final residual = 1.59157e-06, No Iterations 3
DICPCG:  Solving for p, Initial residual = 0.00249331, Final residual = 0.00011994, No Iterations 53
time step continuity errors : sum local = 1.41931e-08, global = -4.78311e-21, cumulative = 9.25753e-20
DICPCG:  Solving for p, Initial residual = 0.00107428, Final residual = 9.58536e-07, No Iterations 131
time step continuity errors : sum local = 1.10764e-10, global = -4.47836e-20, cumulative = 4.77917e-20
ExecutionTime = 3.15 s  ClockTime = 4 s

Time = 0.0405

Courant Number mean: 0.0435428 max: 0.459082
smoothSolver:  Solving for Ux, Initial residual = 0.00254761, Final residual = 1.22929e-06, No Iterations 3
smoothSolver:  Solving for Uy, Initial residual = 0.00303728, Final residual = 1.57216e-06, No Iterations 3
DICPCG:  Solving for p, Initial residual = 0.00247311, Final residual = 0.000118577, No Iterations 53
time step continuity errors : sum local = 1.40392e-08, global = -8.13373e-20, cumulative = -3.35456e-20
DICPCG:  Solving for p, Initial residual = 0.00106542, Final residual = 9.09751e-07, No Iterations 131
time step continuity errors : sum local = 1.05263e-10, global = -6.53341e-20, cumulative = -9.88797e-20
ExecutionTime = 3.18 s  ClockTime = 4 s

Time = 0.041

Courant Number mean: 0.0437497 max: 0.459314
smoothSolver:  Solving for Ux, Initial residual = 0.00251391, Final residual = 1.21342e-06, No Iterations 3
smoothSolver:  Solving for Uy, Initial residual = 0.00300197, Final residual = 1.55328e-06, No Iterations 3
DICPCG:  Solving for p, Initial residual = 0.00245213, Final residual = 0.000116947, No Iterations 53
time step continuity errors : sum local = 1.3856e-08, global = -5.68945e-22, cumulative = -9.94487e-20
DICPCG:  Solving for p, Initial residual = 0.00105665, Final residual = 8.91196e-07, No Iterations 131
time step continuity errors : sum local = 1.03231e-10, global = -3.42455e-20, cumulative = -1.33694e-19
ExecutionTime = 3.22 s  ClockTime = 4 s

Time = 0.0415

Courant Number mean: 0.043955 max: 0.459542
smoothSolver:  Solving for Ux, Initial residual = 0.00248092, Final residual = 1.19789e-06, No Iterations 3
smoothSolver:  Solving for Uy, Initial residual = 0.00296754, Final residual = 1.53489e-06, No Iterations 3
DICPCG:  Solving for p, Initial residual = 0.00243265, Final residual = 0.000115929, No Iterations 53
time step continuity errors : sum local = 1.37424e-08, global = -2.09947e-20, cumulative = -1.54689e-19
DICPCG:  Solving for p, Initial residual = 0.00104717, Final residual = 8.95333e-07, No Iterations 131
time step continuity errors : sum local = 1.0384e-10, global = 3.07497e-20, cumulative = -1.23939e-19
ExecutionTime = 3.25 s  ClockTime = 4 s

Time = 0.042

Courant Number mean: 0.0441584 max: 0.459767
smoothSolver:  Solving for Ux, Initial residual = 0.00244876, Final residual = 1.18273e-06, No Iterations 3
smoothSolver:  Solving for Uy, Initial residual = 0.00293395, Final residual = 1.51697e-06, No Iterations 3
DICPCG:  Solving for p, Initial residual = 0.002413, Final residual = 0.000114304, No Iterations 53
time step continuity errors : sum local = 1.35587e-08, global = -3.3381e-21, cumulative = -1.27277e-19
DICPCG:  Solving for p, Initial residual = 0.00103916, Final residual = 9.22651e-07, No Iterations 131
time step continuity errors : sum local = 1.07131e-10, global = 6.73333e-20, cumulative = -5.99441e-20
ExecutionTime = 3.29 s  ClockTime = 4 s

Time = 0.0425

Courant Number mean: 0.0443601 max: 0.459988
smoothSolver:  Solving for Ux, Initial residual = 0.00241726, Final residual = 1.16792e-06, No Iterations 3
smoothSolver:  Solving for Uy, Initial residual = 0.00290119, Final residual = 1.49949e-06, No Iterations 3
DICPCG:  Solving for p, Initial residual = 0.00239268, Final residual = 0.000113356, No Iterations 53
time step continuity errors : sum local = 1.34529e-08, global = -7.65594e-20, cumulative = -1.36504e-19
DICPCG:  Solving for p, Initial residual = 0.0010299, Final residual = 9.64118e-07, No Iterations 131
time step continuity errors : sum local = 1.12063e-10, global = 2.03665e-21, cumulative = -1.34467e-19
ExecutionTime = 3.32 s  ClockTime = 4 s

Time = 0.043

Courant Number mean: 0.0445599 max: 0.460206
smoothSolver:  Solving for Ux, Initial residual = 0.00238643, Final residual = 1.15342e-06, No Iterations 3
smoothSolver:  Solving for Uy, Initial residual = 0.00286931, Final residual = 1.48244e-06, No Iterations 3
DICPCG:  Solving for p, Initial residual = 0.00237296, Final residual = 0.000111744, No Iterations 53
time step continuity errors : sum local = 1.32702e-08, global = 2.0218e-20, cumulative = -1.14249e-19
DICPCG:  Solving for p, Initial residual = 0.00102204, Final residual = 9.98899e-07, No Iterations 133
time step continuity errors : sum local = 1.16241e-10, global = 2.39026e-20, cumulative = -9.03463e-20
ExecutionTime = 3.35 s  ClockTime = 4 s

Time = 0.0435

Courant Number mean: 0.0447579 max: 0.460421
smoothSolver:  Solving for Ux, Initial residual = 0.00235626, Final residual = 1.13922e-06, No Iterations 3
smoothSolver:  Solving for Uy, Initial residual = 0.00283819, Final residual = 1.46582e-06, No Iterations 3
DICPCG:  Solving for p, Initial residual = 0.00235408, Final residual = 0.000110971, No Iterations 53
time step continuity errors : sum local = 1.31842e-08, global = -3.50367e-20, cumulative = -1.25383e-19
DICPCG:  Solving for p, Initial residual = 0.00101382, Final residual = 8.81109e-07, No Iterations 134
time step continuity errors : sum local = 1.02567e-10, global = 5.09228e-21, cumulative = -1.20291e-19
ExecutionTime = 3.39 s  ClockTime = 4 s

Time = 0.044

Courant Number mean: 0.0449544 max: 0.460634
smoothSolver:  Solving for Ux, Initial residual = 0.00232678, Final residual = 1.1254e-06, No Iterations 3
smoothSolver:  Solving for Uy, Initial residual = 0.00280783, Final residual = 1.44962e-06, No Iterations 3
DICPCG:  Solving for p, Initial residual = 0.00233442, Final residual = 0.000109445, No Iterations 53
time step continuity errors : sum local = 1.30109e-08, global = -1.61029e-20, cumulative = -1.36394e-19
DICPCG:  Solving for p, Initial residual = 0.00100668, Final residual = 9.42382e-07, No Iterations 134
time step continuity errors : sum local = 1.09755e-10, global = -4.03776e-20, cumulative = -1.76771e-19
ExecutionTime = 3.43 s  ClockTime = 4 s

Time = 0.0445

Courant Number mean: 0.0451492 max: 0.460843
smoothSolver:  Solving for Ux, Initial residual = 0.00229796, Final residual = 1.11194e-06, No Iterations 3
smoothSolver:  Solving for Uy, Initial residual = 0.00277822, Final residual = 1.43381e-06, No Iterations 3
DICPCG:  Solving for p, Initial residual = 0.00231603, Final residual = 0.000108757, No Iterations 53
time step continuity errors : sum local = 1.29346e-08, global = 2.16644e-20, cumulative = -1.55107e-19
DICPCG:  Solving for p, Initial residual = 0.000998184, Final residual = 9.24267e-07, No Iterations 134
time step continuity errors : sum local = 1.07713e-10, global = 2.02169e-20, cumulative = -1.3489e-19
ExecutionTime = 3.46 s  ClockTime = 4 s

Time = 0.045

Courant Number mean: 0.0453421 max: 0.461049
smoothSolver:  Solving for Ux, Initial residual = 0.00226999, Final residual = 1.09878e-06, No Iterations 3
smoothSolver:  Solving for Uy, Initial residual = 0.00274928, Final residual = 1.41836e-06, No Iterations 3
DICPCG:  Solving for p, Initial residual = 0.00229749, Final residual = 0.000107165, No Iterations 53
time step continuity errors : sum local = 1.27532e-08, global = 2.86879e-20, cumulative = -1.06202e-19
DICPCG:  Solving for p, Initial residual = 0.000991508, Final residual = 9.63264e-07, No Iterations 134
time step continuity errors : sum local = 1.12312e-10, global = -5.35828e-20, cumulative = -1.59785e-19
ExecutionTime = 3.49 s  ClockTime = 4 s

Time = 0.0455

Courant Number mean: 0.0455331 max: 0.461254
smoothSolver:  Solving for Ux, Initial residual = 0.0022428, Final residual = 1.08593e-06, No Iterations 3
smoothSolver:  Solving for Uy, Initial residual = 0.00272101, Final residual = 1.40328e-06, No Iterations 3
DICPCG:  Solving for p, Initial residual = 0.00229878, Final residual = 0.000106355, No Iterations 53
time step continuity errors : sum local = 1.26615e-08, global = 5.5912e-20, cumulative = -1.03873e-19
DICPCG:  Solving for p, Initial residual = 0.000983702, Final residual = 9.29577e-07, No Iterations 134
time step continuity errors : sum local = 1.08448e-10, global = -4.01951e-20, cumulative = -1.44068e-19
ExecutionTime = 3.53 s  ClockTime = 4 s

Time = 0.046

Courant Number mean: 0.0457227 max: 0.461455
smoothSolver:  Solving for Ux, Initial residual = 0.00221625, Final residual = 1.07338e-06, No Iterations 3
smoothSolver:  Solving for Uy, Initial residual = 0.00269345, Final residual = 1.38858e-06, No Iterations 3
DICPCG:  Solving for p, Initial residual = 0.0022616, Final residual = 0.000104703, No Iterations 53
time step continuity errors : sum local = 1.24732e-08, global = -1.25938e-20, cumulative = -1.56662e-19
DICPCG:  Solving for p, Initial residual = 0.000977449, Final residual = 9.64332e-07, No Iterations 134
time step continuity errors : sum local = 1.12556e-10, global = 1.79082e-21, cumulative = -1.54871e-19
ExecutionTime = 3.56 s  ClockTime = 4 s

Time = 0.0465

Courant Number mean: 0.0459106 max: 0.461653
smoothSolver:  Solving for Ux, Initial residual = 0.00219031, Final residual = 1.06112e-06, No Iterations 3
smoothSolver:  Solving for Uy, Initial residual = 0.00266646, Final residual = 1.37417e-06, No Iterations 3
DICPCG:  Solving for p, Initial residual = 0.00225761, Final residual = 0.000103547, No Iterations 53
time step continuity errors : sum local = 1.23419e-08, global = -1.059e-20, cumulative = -1.65461e-19
DICPCG:  Solving for p, Initial residual = 0.000969204, Final residual = 9.21848e-07, No Iterations 134
time step continuity errors : sum local = 1.07661e-10, global = 8.43167e-21, cumulative = -1.57029e-19
ExecutionTime = 3.6 s  ClockTime = 4 s

Time = 0.047

Courant Number mean: 0.0460965 max: 0.46185
smoothSolver:  Solving for Ux, Initial residual = 0.00216495, Final residual = 1.04912e-06, No Iterations 3
smoothSolver:  Solving for Uy, Initial residual = 0.00264008, Final residual = 1.36009e-06, No Iterations 3
DICPCG:  Solving for p, Initial residual = 0.00222511, Final residual = 0.000102784, No Iterations 53
time step continuity errors : sum local = 1.22565e-08, global = -6.41092e-20, cumulative = -2.21139e-19
DICPCG:  Solving for p, Initial residual = 0.0009633, Final residual = 9.51846e-07, No Iterations 134
time step continuity errors : sum local = 1.1122e-10, global = -1.1688e-20, cumulative = -2.32827e-19
ExecutionTime = 3.64 s  ClockTime = 4 s

Time = 0.0475

Courant Number mean: 0.0462807 max: 0.462043
smoothSolver:  Solving for Ux, Initial residual = 0.00214011, Final residual = 1.03736e-06, No Iterations 3
smoothSolver:  Solving for Uy, Initial residual = 0.0026143, Final residual = 1.34633e-06, No Iterations 3
DICPCG:  Solving for p, Initial residual = 0.00222098, Final residual = 0.000102987, No Iterations 53
time step continuity errors : sum local = 1.22841e-08, global = 3.09937e-20, cumulative = -2.01833e-19
DICPCG:  Solving for p, Initial residual = 0.000956201, Final residual = 9.21637e-07, No Iterations 134
time step continuity errors : sum local = 1.07746e-10, global = -3.44202e-20, cumulative = -2.36253e-19
ExecutionTime = 3.67 s  ClockTime = 4 s

Time = 0.048

Courant Number mean: 0.0464636 max: 0.462234
smoothSolver:  Solving for Ux, Initial residual = 0.00211575, Final residual = 1.02586e-06, No Iterations 3
smoothSolver:  Solving for Uy, Initial residual = 0.00258905, Final residual = 1.33287e-06, No Iterations 3
DICPCG:  Solving for p, Initial residual = 0.00220763, Final residual = 0.000101612, No Iterations 53
time step continuity errors : sum local = 1.2126e-08, global = 3.96489e-20, cumulative = -1.96604e-19
DICPCG:  Solving for p, Initial residual = 0.000949967, Final residual = 9.08648e-07, No Iterations 134
time step continuity errors : sum local = 1.06294e-10, global = -6.6506e-22, cumulative = -1.97269e-19
ExecutionTime = 3.71 s  ClockTime = 4 s

Time = 0.0485

Courant Number mean: 0.0466449 max: 0.462422
smoothSolver:  Solving for Ux, Initial residual = 0.00209193, Final residual = 1.01462e-06, No Iterations 3
smoothSolver:  Solving for Uy, Initial residual = 0.00256443, Final residual = 1.31973e-06, No Iterations 3
DICPCG:  Solving for p, Initial residual = 0.00218118, Final residual = 0.000100226, No Iterations 53
time step continuity errors : sum local = 1.19686e-08, global = -8.14624e-20, cumulative = -2.78732e-19
DICPCG:  Solving for p, Initial residual = 0.000942956, Final residual = 9.16052e-07, No Iterations 134
time step continuity errors : sum local = 1.07205e-10, global = -5.29219e-20, cumulative = -3.31653e-19
ExecutionTime = 3.74 s  ClockTime = 4 s

Time = 0.049

Courant Number mean: 0.0468244 max: 0.462609
smoothSolver:  Solving for Ux, Initial residual = 0.00206862, Final residual = 1.00362e-06, No Iterations 3
smoothSolver:  Solving for Uy, Initial residual = 0.00254029, Final residual = 1.30686e-06, No Iterations 3
DICPCG:  Solving for p, Initial residual = 0.00216623, Final residual = 9.89155e-05, No Iterations 53
time step continuity errors : sum local = 1.18193e-08, global = 1.89941e-20, cumulative = -3.12659e-19
DICPCG:  Solving for p, Initial residual = 0.000936705, Final residual = 8.95064e-07, No Iterations 134
time step continuity errors : sum local = 1.04812e-10, global = 6.73025e-22, cumulative = -3.11986e-19
ExecutionTime = 3.78 s  ClockTime = 4 s

Time = 0.0495

Courant Number mean: 0.0470022 max: 0.462793
smoothSolver:  Solving for Ux, Initial residual = 0.00204579, Final residual = 9.92813e-07, No Iterations 3
smoothSolver:  Solving for Uy, Initial residual = 0.0025167, Final residual = 1.29427e-06, No Iterations 3
DICPCG:  Solving for p, Initial residual = 0.00215233, Final residual = 9.83505e-05, No Iterations 53
time step continuity errors : sum local = 1.17567e-08, global = 4.94276e-20, cumulative = -2.62559e-19
DICPCG:  Solving for p, Initial residual = 0.000929768, Final residual = 8.92765e-07, No Iterations 134
time step continuity errors : sum local = 1.04597e-10, global = -2.96065e-20, cumulative = -2.92165e-19
ExecutionTime = 3.81 s  ClockTime = 4 s

Time = 0.05

Courant Number mean: 0.0471784 max: 0.462974
smoothSolver:  Solving for Ux, Initial residual = 0.00202341, Final residual = 9.82211e-07, No Iterations 3
smoothSolver:  Solving for Uy, Initial residual = 0.00249365, Final residual = 1.28196e-06, No Iterations 3
DICPCG:  Solving for p, Initial residual = 0.00213823, Final residual = 9.73264e-05, No Iterations 53
time step continuity errors : sum local = 1.16406e-08, global = -8.62094e-20, cumulative = -3.78375e-19
DICPCG:  Solving for p, Initial residual = 0.000923864, Final residual = 8.91628e-07, No Iterations 134
time step continuity errors : sum local = 1.04517e-10, global = 3.03079e-21, cumulative = -3.75344e-19
ExecutionTime = 3.87 s  ClockTime = 4 s

Time = 0.0505

Courant Number mean: 0.0473531 max: 0.463152
smoothSolver:  Solving for Ux, Initial residual = 0.00200146, Final residual = 9.71803e-07, No Iterations 3
smoothSolver:  Solving for Uy, Initial residual = 0.00247107, Final residual = 1.2699e-06, No Iterations 3
DICPCG:  Solving for p, Initial residual = 0.00212358, Final residual = 9.66591e-05, No Iterations 53
time step continuity errors : sum local = 1.15657e-08, global = 8.60678e-21, cumulative = -3.66737e-19
DICPCG:  Solving for p, Initial residual = 0.000917324, Final residual = 8.75312e-07, No Iterations 134
time step continuity errors : sum local = 1.02662e-10, global = 3.21318e-20, cumulative = -3.34605e-19
ExecutionTime = 3.91 s  ClockTime = 4 s

Time = 0.051

Courant Number mean: 0.0475264 max: 0.463328
smoothSolver:  Solving for Ux, Initial residual = 0.00198002, Final residual = 9.61579e-07, No Iterations 3
smoothSolver:  Solving for Uy, Initial residual = 0.00244896, Final residual = 1.25811e-06, No Iterations 3
DICPCG:  Solving for p, Initial residual = 0.00210849, Final residual = 9.53364e-05, No Iterations 53
time step continuity errors : sum local = 1.14147e-08, global = -2.53566e-21, cumulative = -3.37141e-19
DICPCG:  Solving for p, Initial residual = 0.0009113, Final residual = 9.92783e-07, No Iterations 130
time step continuity errors : sum local = 1.1656e-10, global = -2.60266e-20, cumulative = -3.63168e-19
ExecutionTime = 3.94 s  ClockTime = 4 s

Time = 0.0515

Courant Number mean: 0.047698 max: 0.463502
smoothSolver:  Solving for Ux, Initial residual = 0.00195899, Final residual = 9.51602e-07, No Iterations 3
smoothSolver:  Solving for Uy, Initial residual = 0.0024273, Final residual = 1.24654e-06, No Iterations 3
DICPCG:  Solving for p, Initial residual = 0.00209447, Final residual = 9.4887e-05, No Iterations 53
time step continuity errors : sum local = 1.13656e-08, global = 2.12792e-21, cumulative = -3.6104e-19
DICPCG:  Solving for p, Initial residual = 0.00090466, Final residual = 9.65673e-07, No Iterations 130
time step continuity errors : sum local = 1.13456e-10, global = -3.59609e-20, cumulative = -3.97001e-19
ExecutionTime = 3.98 s  ClockTime = 4 s

Time = 0.052

Courant Number mean: 0.0478681 max: 0.463674
smoothSolver:  Solving for Ux, Initial residual = 0.00193837, Final residual = 9.41883e-07, No Iterations 3
smoothSolver:  Solving for Uy, Initial residual = 0.00240609, Final residual = 1.23521e-06, No Iterations 3
DICPCG:  Solving for p, Initial residual = 0.00208067, Final residual = 9.36887e-05, No Iterations 53
time step continuity errors : sum local = 1.12286e-08, global = 2.41537e-21, cumulative = -3.94585e-19
DICPCG:  Solving for p, Initial residual = 0.000899176, Final residual = 9.53419e-07, No Iterations 130
time step continuity errors : sum local = 1.12084e-10, global = -6.72594e-20, cumulative = -4.61845e-19
ExecutionTime = 4.01 s  ClockTime = 5 s

Time = 0.0525

Courant Number mean: 0.0480366 max: 0.463844
smoothSolver:  Solving for Ux, Initial residual = 0.00191829, Final residual = 9.32363e-07, No Iterations 3
smoothSolver:  Solving for Uy, Initial residual = 0.00238531, Final residual = 1.22412e-06, No Iterations 3
DICPCG:  Solving for p, Initial residual = 0.00206663, Final residual = 9.32838e-05, No Iterations 53
time step continuity errors : sum local = 1.11846e-08, global = -5.40068e-20, cumulative = -5.15851e-19
DICPCG:  Solving for p, Initial residual = 0.000892788, Final residual = 9.7928e-07, No Iterations 129
time step continuity errors : sum local = 1.15049e-10, global = -3.44814e-21, cumulative = -5.193e-19
ExecutionTime = 4.05 s  ClockTime = 5 s

Time = 0.053

Courant Number mean: 0.0482037 max: 0.464012
smoothSolver:  Solving for Ux, Initial residual = 0.00189861, Final residual = 9.23027e-07, No Iterations 3
smoothSolver:  Solving for Uy, Initial residual = 0.00236493, Final residual = 1.21327e-06, No Iterations 3
DICPCG:  Solving for p, Initial residual = 0.00205351, Final residual = 9.20875e-05, No Iterations 53
time step continuity errors : sum local = 1.10475e-08, global = -8.39813e-20, cumulative = -6.03281e-19
DICPCG:  Solving for p, Initial residual = 0.000887806, Final residual = 9.67715e-07, No Iterations 129
time step continuity errors : sum local = 1.1376e-10, global = 8.37248e-20, cumulative = -5.19556e-19
ExecutionTime = 4.09 s  ClockTime = 5 s

Time = 0.0535

Courant Number mean: 0.0483702 max: 0.464177
smoothSolver:  Solving for Ux, Initial residual = 0.00187933, Final residual = 9.13872e-07, No Iterations 3
smoothSolver:  Solving for Uy, Initial residual = 0.0023449, Final residual = 1.20262e-06, No Iterations 3
DICPCG:  Solving for p, Initial residual = 0.00203941, Final residual = 9.1738e-05, No Iterations 53
time step continuity errors : sum local = 1.10096e-08, global = 6.15769e-20, cumulative = -4.57979e-19
DICPCG:  Solving for p, Initial residual = 0.000881739, Final residual = 9.46915e-07, No Iterations 129
time step continuity errors : sum local = 1.11383e-10, global = -7.26571e-22, cumulative = -4.58706e-19
ExecutionTime = 4.12 s  ClockTime = 5 s

Time = 0.054

Courant Number mean: 0.048536 max: 0.46434
smoothSolver:  Solving for Ux, Initial residual = 0.00186042, Final residual = 9.04883e-07, No Iterations 3
smoothSolver:  Solving for Uy, Initial residual = 0.00232528, Final residual = 1.19217e-06, No Iterations 3
DICPCG:  Solving for p, Initial residual = 0.00202556, Final residual = 9.07119e-05, No Iterations 53
time step continuity errors : sum local = 1.08921e-08, global = 6.94037e-21, cumulative = -4.51765e-19
DICPCG:  Solving for p, Initial residual = 0.000876907, Final residual = 9.26482e-07, No Iterations 129
time step continuity errors : sum local = 1.0905e-10, global = 4.12362e-20, cumulative = -4.10529e-19
ExecutionTime = 4.16 s  ClockTime = 5 s

Time = 0.0545

Courant Number mean: 0.048701 max: 0.464501
smoothSolver:  Solving for Ux, Initial residual = 0.00184185, Final residual = 8.96072e-07, No Iterations 3
smoothSolver:  Solving for Uy, Initial residual = 0.00230604, Final residual = 1.18193e-06, No Iterations 3
DICPCG:  Solving for p, Initial residual = 0.00203971, Final residual = 8.9959e-05, No Iterations 53
time step continuity errors : sum local = 1.08059e-08, global = -1.21195e-21, cumulative = -4.11741e-19
[...]
DICPCG:  Solving for p, Initial residual = 0.000114118, Final residual = 8.01676e-07, No Iterations 102
time step continuity errors : sum local = 1.05704e-10, global = 8.62557e-20, cumulative = -2.10317e-18
ExecutionTime = 30.73 s  ClockTime = 32 s

Time = 0.487

Courant Number mean: 0.1017 max: 0.479502
smoothSolver:  Solving for Ux, Initial residual = 0.000259599, Final residual = 1.65564e-06, No Iterations 2
smoothSolver:  Solving for Uy, Initial residual = 0.000265756, Final residual = 1.68973e-06, No Iterations 2
DICPCG:  Solving for p, Initial residual = 0.00026152, Final residual = 1.23961e-05, No Iterations 29
time step continuity errors : sum local = 1.67854e-09, global = 8.76664e-20, cumulative = -2.01551e-18
DICPCG:  Solving for p, Initial residual = 0.000114041, Final residual = 7.80022e-07, No Iterations 102
time step continuity errors : sum local = 1.02874e-10, global = 4.16801e-20, cumulative = -1.97383e-18
ExecutionTime = 30.76 s  ClockTime = 32 s

Time = 0.4875

Courant Number mean: 0.101732 max: 0.479502
smoothSolver:  Solving for Ux, Initial residual = 0.000259237, Final residual = 1.65331e-06, No Iterations 2
smoothSolver:  Solving for Uy, Initial residual = 0.000265389, Final residual = 1.68741e-06, No Iterations 2
DICPCG:  Solving for p, Initial residual = 0.000261733, Final residual = 1.21515e-05, No Iterations 29
time step continuity errors : sum local = 1.64646e-09, global = -6.30452e-20, cumulative = -2.03687e-18
DICPCG:  Solving for p, Initial residual = 0.00011407, Final residual = 7.9093e-07, No Iterations 102
time step continuity errors : sum local = 1.04308e-10, global = -1.93675e-20, cumulative = -2.05624e-18
ExecutionTime = 30.78 s  ClockTime = 32 s

Time = 0.488

Courant Number mean: 0.101765 max: 0.479503
smoothSolver:  Solving for Ux, Initial residual = 0.000258876, Final residual = 1.65099e-06, No Iterations 2
smoothSolver:  Solving for Uy, Initial residual = 0.000265022, Final residual = 1.68508e-06, No Iterations 2
DICPCG:  Solving for p, Initial residual = 0.000259465, Final residual = 1.23193e-05, No Iterations 29
time step continuity errors : sum local = 1.66881e-09, global = 5.45483e-20, cumulative = -2.00169e-18
DICPCG:  Solving for p, Initial residual = 0.000113875, Final residual = 7.78069e-07, No Iterations 102
time step continuity errors : sum local = 1.02639e-10, global = -6.18365e-20, cumulative = -2.06353e-18
ExecutionTime = 30.81 s  ClockTime = 32 s

Time = 0.4885

Courant Number mean: 0.101798 max: 0.479503
smoothSolver:  Solving for Ux, Initial residual = 0.000258514, Final residual = 1.64867e-06, No Iterations 2
smoothSolver:  Solving for Uy, Initial residual = 0.000264656, Final residual = 1.68277e-06, No Iterations 2
DICPCG:  Solving for p, Initial residual = 0.000259034, Final residual = 1.23884e-05, No Iterations 29
time step continuity errors : sum local = 1.67817e-09, global = -3.38648e-20, cumulative = -2.09739e-18
DICPCG:  Solving for p, Initial residual = 0.000113972, Final residual = 7.8622e-07, No Iterations 102
time step continuity errors : sum local = 1.03703e-10, global = -1.11743e-20, cumulative = -2.10857e-18
ExecutionTime = 30.83 s  ClockTime = 33 s

Time = 0.489

Courant Number mean: 0.101831 max: 0.479504
smoothSolver:  Solving for Ux, Initial residual = 0.000258152, Final residual = 1.64635e-06, No Iterations 2
smoothSolver:  Solving for Uy, Initial residual = 0.000264292, Final residual = 1.68046e-06, No Iterations 2
DICPCG:  Solving for p, Initial residual = 0.000258646, Final residual = 1.24132e-05, No Iterations 29
time step continuity errors : sum local = 1.68146e-09, global = -1.47995e-20, cumulative = -2.12337e-18
DICPCG:  Solving for p, Initial residual = 0.000113787, Final residual = 7.7713e-07, No Iterations 102
time step continuity errors : sum local = 1.02525e-10, global = 4.64233e-20, cumulative = -2.07694e-18
ExecutionTime = 30.86 s  ClockTime = 33 s

Time = 0.4895

Courant Number mean: 0.101864 max: 0.479505
smoothSolver:  Solving for Ux, Initial residual = 0.000257791, Final residual = 1.64404e-06, No Iterations 2
smoothSolver:  Solving for Uy, Initial residual = 0.000263929, Final residual = 1.67815e-06, No Iterations 2
DICPCG:  Solving for p, Initial residual = 0.000258264, Final residual = 1.2468e-05, No Iterations 29
time step continuity errors : sum local = 1.68877e-09, global = -1.66301e-19, cumulative = -2.24324e-18
DICPCG:  Solving for p, Initial residual = 0.000113619, Final residual = 7.70802e-07, No Iterations 102
time step continuity errors : sum local = 1.01689e-10, global = 4.55757e-20, cumulative = -2.19767e-18
ExecutionTime = 30.88 s  ClockTime = 33 s

Time = 0.49

Courant Number mean: 0.101896 max: 0.479505
smoothSolver:  Solving for Ux, Initial residual = 0.000257431, Final residual = 1.64172e-06, No Iterations 2
smoothSolver:  Solving for Uy, Initial residual = 0.000263566, Final residual = 1.67584e-06, No Iterations 2
DICPCG:  Solving for p, Initial residual = 0.000257877, Final residual = 1.22696e-05, No Iterations 29
time step continuity errors : sum local = 1.66276e-09, global = -2.35346e-21, cumulative = -2.20002e-18
DICPCG:  Solving for p, Initial residual = 0.000113282, Final residual = 7.78737e-07, No Iterations 102
time step continuity errors : sum local = 1.02746e-10, global = 7.21261e-20, cumulative = -2.1279e-18
ExecutionTime = 30.94 s  ClockTime = 33 s

Time = 0.4905

Courant Number mean: 0.101929 max: 0.479506
smoothSolver:  Solving for Ux, Initial residual = 0.000257071, Final residual = 1.63941e-06, No Iterations 2
smoothSolver:  Solving for Uy, Initial residual = 0.000263203, Final residual = 1.67354e-06, No Iterations 2
DICPCG:  Solving for p, Initial residual = 0.000257549, Final residual = 1.24765e-05, No Iterations 29
time step continuity errors : sum local = 1.69002e-09, global = -1.04021e-21, cumulative = -2.12894e-18
DICPCG:  Solving for p, Initial residual = 0.000113243, Final residual = 7.88568e-07, No Iterations 102
time step continuity errors : sum local = 1.04037e-10, global = -4.81033e-20, cumulative = -2.17704e-18
ExecutionTime = 30.96 s  ClockTime = 33 s

Time = 0.491

Courant Number mean: 0.101962 max: 0.479507
smoothSolver:  Solving for Ux, Initial residual = 0.000256711, Final residual = 1.6371e-06, No Iterations 2
smoothSolver:  Solving for Uy, Initial residual = 0.000262842, Final residual = 1.67124e-06, No Iterations 2
DICPCG:  Solving for p, Initial residual = 0.000257179, Final residual = 1.24908e-05, No Iterations 29
time step continuity errors : sum local = 1.69205e-09, global = -6.3723e-20, cumulative = -2.24076e-18
DICPCG:  Solving for p, Initial residual = 0.000113021, Final residual = 8.0263e-07, No Iterations 102
time step continuity errors : sum local = 1.05897e-10, global = 1.71831e-20, cumulative = -2.22358e-18
ExecutionTime = 30.99 s  ClockTime = 33 s

Time = 0.4915

Courant Number mean: 0.101995 max: 0.479507
smoothSolver:  Solving for Ux, Initial residual = 0.000256351, Final residual = 1.63479e-06, No Iterations 2
smoothSolver:  Solving for Uy, Initial residual = 0.000262481, Final residual = 1.66894e-06, No Iterations 2
DICPCG:  Solving for p, Initial residual = 0.000256741, Final residual = 1.2611e-05, No Iterations 29
time step continuity errors : sum local = 1.70799e-09, global = 1.31516e-19, cumulative = -2.09206e-18
DICPCG:  Solving for p, Initial residual = 0.00011293, Final residual = 8.02249e-07, No Iterations 102
time step continuity errors : sum local = 1.05847e-10, global = 1.00458e-20, cumulative = -2.08202e-18
ExecutionTime = 31.01 s  ClockTime = 33 s

Time = 0.492

Courant Number mean: 0.102027 max: 0.479508
smoothSolver:  Solving for Ux, Initial residual = 0.000255991, Final residual = 1.63249e-06, No Iterations 2
smoothSolver:  Solving for Uy, Initial residual = 0.00026212, Final residual = 1.66665e-06, No Iterations 2
DICPCG:  Solving for p, Initial residual = 0.000256385, Final residual = 1.24204e-05, No Iterations 29
time step continuity errors : sum local = 1.68308e-09, global = 2.25868e-20, cumulative = -2.05943e-18
DICPCG:  Solving for p, Initial residual = 0.000112761, Final residual = 7.8817e-07, No Iterations 102
time step continuity errors : sum local = 1.04009e-10, global = 5.97563e-20, cumulative = -1.99967e-18
ExecutionTime = 31.04 s  ClockTime = 33 s

Time = 0.4925

Courant Number mean: 0.10206 max: 0.479508
smoothSolver:  Solving for Ux, Initial residual = 0.000255632, Final residual = 1.63019e-06, No Iterations 2
smoothSolver:  Solving for Uy, Initial residual = 0.00026176, Final residual = 1.66436e-06, No Iterations 2
DICPCG:  Solving for p, Initial residual = 0.000256444, Final residual = 1.26469e-05, No Iterations 29
time step continuity errors : sum local = 1.71286e-09, global = 1.05914e-19, cumulative = -1.89376e-18
DICPCG:  Solving for p, Initial residual = 0.000112285, Final residual = 8.12548e-07, No Iterations 102
time step continuity errors : sum local = 1.07212e-10, global = 6.93941e-20, cumulative = -1.82437e-18
ExecutionTime = 31.06 s  ClockTime = 33 s

Time = 0.493

Courant Number mean: 0.102092 max: 0.479509
smoothSolver:  Solving for Ux, Initial residual = 0.000255274, Final residual = 1.62789e-06, No Iterations 2
smoothSolver:  Solving for Uy, Initial residual = 0.0002614, Final residual = 1.66207e-06, No Iterations 2
DICPCG:  Solving for p, Initial residual = 0.000256054, Final residual = 1.25611e-05, No Iterations 29
time step continuity errors : sum local = 1.70172e-09, global = -3.04484e-20, cumulative = -1.85481e-18
DICPCG:  Solving for p, Initial residual = 0.000112025, Final residual = 8.14526e-07, No Iterations 102
time step continuity errors : sum local = 1.07476e-10, global = 2.19061e-20, cumulative = -1.83291e-18
ExecutionTime = 31.09 s  ClockTime = 33 s

Time = 0.4935

Courant Number mean: 0.102125 max: 0.47951
smoothSolver:  Solving for Ux, Initial residual = 0.000254916, Final residual = 1.6256e-06, No Iterations 2
smoothSolver:  Solving for Uy, Initial residual = 0.000261041, Final residual = 1.65979e-06, No Iterations 2
DICPCG:  Solving for p, Initial residual = 0.000255213, Final residual = 1.23248e-05, No Iterations 29
time step continuity errors : sum local = 1.6708e-09, global = 4.02219e-20, cumulative = -1.79269e-18
DICPCG:  Solving for p, Initial residual = 0.000112177, Final residual = 7.93636e-07, No Iterations 102
time step continuity errors : sum local = 1.04744e-10, global = -5.03821e-21, cumulative = -1.79772e-18
ExecutionTime = 31.11 s  ClockTime = 33 s

Time = 0.494

Courant Number mean: 0.102157 max: 0.47951
smoothSolver:  Solving for Ux, Initial residual = 0.000254558, Final residual = 1.6233e-06, No Iterations 2
smoothSolver:  Solving for Uy, Initial residual = 0.000260682, Final residual = 1.65751e-06, No Iterations 2
DICPCG:  Solving for p, Initial residual = 0.000254867, Final residual = 1.23999e-05, No Iterations 29
time step continuity errors : sum local = 1.68087e-09, global = -4.84928e-21, cumulative = -1.80257e-18
DICPCG:  Solving for p, Initial residual = 0.000112158, Final residual = 7.92566e-07, No Iterations 102
time step continuity errors : sum local = 1.04603e-10, global = 3.63039e-20, cumulative = -1.76627e-18
ExecutionTime = 31.14 s  ClockTime = 33 s

Time = 0.4945

Courant Number mean: 0.10219 max: 0.479511
smoothSolver:  Solving for Ux, Initial residual = 0.000254201, Final residual = 1.62101e-06, No Iterations 2
smoothSolver:  Solving for Uy, Initial residual = 0.000260325, Final residual = 1.65524e-06, No Iterations 2
DICPCG:  Solving for p, Initial residual = 0.000254474, Final residual = 1.24169e-05, No Iterations 29
time step continuity errors : sum local = 1.68313e-09, global = 1.26223e-19, cumulative = -1.64005e-18
DICPCG:  Solving for p, Initial residual = 0.000111946, Final residual = 7.95452e-07, No Iterations 102
time step continuity errors : sum local = 1.04992e-10, global = 5.30666e-20, cumulative = -1.58698e-18
ExecutionTime = 31.17 s  ClockTime = 33 s

Time = 0.495

Courant Number mean: 0.102222 max: 0.479512
smoothSolver:  Solving for Ux, Initial residual = 0.000253844, Final residual = 1.61872e-06, No Iterations 2
smoothSolver:  Solving for Uy, Initial residual = 0.000259967, Final residual = 1.65296e-06, No Iterations 2
DICPCG:  Solving for p, Initial residual = 0.0002541, Final residual = 1.24061e-05, No Iterations 29
time step continuity errors : sum local = 1.68184e-09, global = -4.20933e-20, cumulative = -1.62907e-18
DICPCG:  Solving for p, Initial residual = 0.000111743, Final residual = 8.02884e-07, No Iterations 102
time step continuity errors : sum local = 1.05972e-10, global = 3.08794e-20, cumulative = -1.59819e-18
ExecutionTime = 31.2 s  ClockTime = 33 s

Time = 0.4955

Courant Number mean: 0.102255 max: 0.479512
smoothSolver:  Solving for Ux, Initial residual = 0.000253488, Final residual = 1.61643e-06, No Iterations 2
smoothSolver:  Solving for Uy, Initial residual = 0.00025961, Final residual = 1.6507e-06, No Iterations 2
DICPCG:  Solving for p, Initial residual = 0.000255793, Final residual = 1.06389e-05, No Iterations 30
time step continuity errors : sum local = 1.45054e-09, global = 4.73428e-20, cumulative = -1.55085e-18
DICPCG:  Solving for p, Initial residual = 0.000110676, Final residual = 8.66027e-07, No Iterations 102
time step continuity errors : sum local = 1.14287e-10, global = 1.02624e-20, cumulative = -1.54059e-18
ExecutionTime = 31.23 s  ClockTime = 33 s

Time = 0.496

Courant Number mean: 0.102287 max: 0.479513
smoothSolver:  Solving for Ux, Initial residual = 0.000253133, Final residual = 1.61415e-06, No Iterations 2
smoothSolver:  Solving for Uy, Initial residual = 0.000259253, Final residual = 1.64843e-06, No Iterations 2
DICPCG:  Solving for p, Initial residual = 0.000255613, Final residual = 1.06479e-05, No Iterations 30
time step continuity errors : sum local = 1.45205e-09, global = 1.88674e-20, cumulative = -1.52172e-18
DICPCG:  Solving for p, Initial residual = 0.000110545, Final residual = 8.60045e-07, No Iterations 102
time step continuity errors : sum local = 1.13521e-10, global = 3.08658e-20, cumulative = -1.49086e-18
ExecutionTime = 31.25 s  ClockTime = 33 s

Time = 0.4965

Courant Number mean: 0.102319 max: 0.479513
smoothSolver:  Solving for Ux, Initial residual = 0.000252776, Final residual = 1.61186e-06, No Iterations 2
smoothSolver:  Solving for Uy, Initial residual = 0.000258898, Final residual = 1.64617e-06, No Iterations 2
DICPCG:  Solving for p, Initial residual = 0.000253062, Final residual = 1.21043e-05, No Iterations 29
time step continuity errors : sum local = 1.64271e-09, global = 3.22895e-20, cumulative = -1.45857e-18
DICPCG:  Solving for p, Initial residual = 0.000110968, Final residual = 8.0803e-07, No Iterations 102
time step continuity errors : sum local = 1.06642e-10, global = -2.47613e-20, cumulative = -1.48333e-18
ExecutionTime = 31.28 s  ClockTime = 33 s

Time = 0.497

Courant Number mean: 0.102352 max: 0.479514
smoothSolver:  Solving for Ux, Initial residual = 0.000252419, Final residual = 1.60958e-06, No Iterations 2
smoothSolver:  Solving for Uy, Initial residual = 0.000258543, Final residual = 1.64391e-06, No Iterations 2
DICPCG:  Solving for p, Initial residual = 0.000253356, Final residual = 1.24154e-05, No Iterations 29
time step continuity errors : sum local = 1.68317e-09, global = -3.00679e-20, cumulative = -1.5134e-18
DICPCG:  Solving for p, Initial residual = 0.000110591, Final residual = 8.21643e-07, No Iterations 102
time step continuity errors : sum local = 1.08481e-10, global = 6.61133e-20, cumulative = -1.44728e-18
ExecutionTime = 31.3 s  ClockTime = 33 s

Time = 0.4975

Courant Number mean: 0.102384 max: 0.479515
smoothSolver:  Solving for Ux, Initial residual = 0.000252063, Final residual = 1.60729e-06, No Iterations 2
smoothSolver:  Solving for Uy, Initial residual = 0.000258187, Final residual = 1.64165e-06, No Iterations 2
DICPCG:  Solving for p, Initial residual = 0.000252954, Final residual = 1.24495e-05, No Iterations 29
time step continuity errors : sum local = 1.68799e-09, global = 7.45554e-20, cumulative = -1.37273e-18
DICPCG:  Solving for p, Initial residual = 0.000110461, Final residual = 8.387e-07, No Iterations 102
time step continuity errors : sum local = 1.10677e-10, global = 7.28536e-20, cumulative = -1.29987e-18
ExecutionTime = 31.33 s  ClockTime = 33 s

Time = 0.498

Courant Number mean: 0.102416 max: 0.479515
smoothSolver:  Solving for Ux, Initial residual = 0.000251707, Final residual = 1.60501e-06, No Iterations 2
smoothSolver:  Solving for Uy, Initial residual = 0.000257835, Final residual = 1.6394e-06, No Iterations 2
DICPCG:  Solving for p, Initial residual = 0.00025185, Final residual = 1.20687e-05, No Iterations 29
time step continuity errors : sum local = 1.63807e-09, global = -1.15972e-19, cumulative = -1.41585e-18
DICPCG:  Solving for p, Initial residual = 0.000110458, Final residual = 7.93608e-07, No Iterations 102
time step continuity errors : sum local = 1.04806e-10, global = 1.12727e-19, cumulative = -1.30312e-18
ExecutionTime = 31.35 s  ClockTime = 33 s

Time = 0.4985

Courant Number mean: 0.102448 max: 0.479516
smoothSolver:  Solving for Ux, Initial residual = 0.000251352, Final residual = 1.60274e-06, No Iterations 2
smoothSolver:  Solving for Uy, Initial residual = 0.000257482, Final residual = 1.63715e-06, No Iterations 2
DICPCG:  Solving for p, Initial residual = 0.000251484, Final residual = 1.2118e-05, No Iterations 29
time step continuity errors : sum local = 1.64461e-09, global = -8.96332e-20, cumulative = -1.39275e-18
DICPCG:  Solving for p, Initial residual = 0.000110448, Final residual = 8.08759e-07, No Iterations 102
time step continuity errors : sum local = 1.06767e-10, global = 2.21478e-20, cumulative = -1.3706e-18
ExecutionTime = 31.38 s  ClockTime = 33 s

Time = 0.499

Courant Number mean: 0.102481 max: 0.479517
smoothSolver:  Solving for Ux, Initial residual = 0.000250997, Final residual = 1.60047e-06, No Iterations 2
smoothSolver:  Solving for Uy, Initial residual = 0.00025713, Final residual = 1.6349e-06, No Iterations 2
DICPCG:  Solving for p, Initial residual = 0.000251128, Final residual = 1.20681e-05, No Iterations 29
time step continuity errors : sum local = 1.63825e-09, global = 4.80863e-20, cumulative = -1.32252e-18
DICPCG:  Solving for p, Initial residual = 0.000110271, Final residual = 7.9437e-07, No Iterations 102
time step continuity errors : sum local = 1.04908e-10, global = 9.54202e-20, cumulative = -1.2271e-18
ExecutionTime = 31.41 s  ClockTime = 33 s

Time = 0.4995

Courant Number mean: 0.102513 max: 0.479517
smoothSolver:  Solving for Ux, Initial residual = 0.000250642, Final residual = 1.5982e-06, No Iterations 2
smoothSolver:  Solving for Uy, Initial residual = 0.000256778, Final residual = 1.63265e-06, No Iterations 2
DICPCG:  Solving for p, Initial residual = 0.000250784, Final residual = 1.2083e-05, No Iterations 29
time step continuity errors : sum local = 1.64018e-09, global = 5.2918e-20, cumulative = -1.17418e-18
DICPCG:  Solving for p, Initial residual = 0.000110114, Final residual = 7.99894e-07, No Iterations 102
time step continuity errors : sum local = 1.05615e-10, global = 9.17608e-20, cumulative = -1.08242e-18
ExecutionTime = 31.43 s  ClockTime = 33 s

Time = 0.5

Courant Number mean: 0.102545 max: 0.479518
smoothSolver:  Solving for Ux, Initial residual = 0.000250289, Final residual = 1.59593e-06, No Iterations 2
smoothSolver:  Solving for Uy, Initial residual = 0.000256427, Final residual = 1.6304e-06, No Iterations 2
DICPCG:  Solving for p, Initial residual = 0.000250503, Final residual = 1.21005e-05, No Iterations 29
time step continuity errors : sum local = 1.6427e-09, global = 2.09577e-21, cumulative = -1.08032e-18
DICPCG:  Solving for p, Initial residual = 0.000109877, Final residual = 7.91834e-07, No Iterations 102
time step continuity errors : sum local = 1.04578e-10, global = -4.03741e-20, cumulative = -1.1207e-18
ExecutionTime = 31.48 s  ClockTime = 33 s

End

