/*---------------------------------------------------------------------------*\
  =========                 |
  \\      /  F ield         | OpenFOAM: The Open Source CFD Toolbox
   \\    /   O peration     | Website:  https://openfoam.org
    \\  /    A nd           | Version:  7
     \\/     M anipulation  |
\*---------------------------------------------------------------------------*/
Build  : 7
Exec   : icoFoam
Date   : Feb 08 2025
Time   : 01:41:50
Host   : "c201-006.frontera.tacc.utexas.edu"
PID    : 217283
I/O    : uncollated
Case   : /work2/10249/ctshep3141/frontera/coe347/COE-347-Open-Foam/of-project-1/cavity-Re-10/80x80
nProcs : 1
sigFpe : Enabling floating point exception trapping (FOAM_SIGFPE).
fileModificationChecking : Monitoring run-time modified files using timeStampMaster (fileModificationSkew 10)
allowSystemOperations : Allowing user-supplied system call operations

// * * * * * * * * * * * * * * * * * * * * * * * * * * * * * * * * * * * * * //
Create time

Create mesh for time = 0.5

Reading transportProperties

Reading field p

Reading field U

Reading/calculating face flux field phi


Starting time loop

Time = 0.50125

Courant Number mean: 0.225637 max: 0.963312
smoothSolver:  Solving for Ux, Initial residual = 6.55231e-06, Final residual = 6.55231e-06, No Iterations 0
smoothSolver:  Solving for Uy, Initial residual = 1.71272e-05, Final residual = 4.66168e-06, No Iterations 1
DICPCG:  Solving for p, Initial residual = 0.000103169, Final residual = 4.44719e-06, No Iterations 18
time step continuity errors : sum local = 2.60067e-09, global = 2.376e-19, cumulative = 2.376e-19
DICPCG:  Solving for p, Initial residual = 7.47625e-05, Final residual = 9.04357e-07, No Iterations 28
time step continuity errors : sum local = 5.30294e-10, global = -1.59944e-19, cumulative = 7.76559e-20
ExecutionTime = 0.07 s  ClockTime = 0 s

Time = 0.5025

Courant Number mean: 0.225638 max: 0.96331
smoothSolver:  Solving for Ux, Initial residual = 3.0554e-06, Final residual = 3.0554e-06, No Iterations 0
smoothSolver:  Solving for Uy, Initial residual = 4.93933e-06, Final residual = 4.93933e-06, No Iterations 0
DICPCG:  Solving for p, Initial residual = 4.00425e-05, Final residual = 1.93099e-06, No Iterations 15
time step continuity errors : sum local = 1.12854e-09, global = 1.336e-19, cumulative = 2.11256e-19
DICPCG:  Solving for p, Initial residual = 2.45451e-05, Final residual = 9.82017e-07, No Iterations 11
time step continuity errors : sum local = 6.00541e-10, global = 1.68438e-20, cumulative = 2.281e-19
ExecutionTime = 0.08 s  ClockTime = 0 s

Time = 0.50375

Courant Number mean: 0.225638 max: 0.96331
smoothSolver:  Solving for Ux, Initial residual = 2.43198e-06, Final residual = 2.43198e-06, No Iterations 0
smoothSolver:  Solving for Uy, Initial residual = 4.89625e-06, Final residual = 4.89625e-06, No Iterations 0
DICPCG:  Solving for p, Initial residual = 1.82921e-05, Final residual = 6.33776e-07, No Iterations 6
time step continuity errors : sum local = 4.10418e-10, global = 3.13669e-19, cumulative = 5.41769e-19
DICPCG:  Solving for p, Initial residual = 1.42875e-05, Final residual = 7.68695e-07, No Iterations 1
time step continuity errors : sum local = 4.89369e-10, global = 1.77541e-19, cumulative = 7.19309e-19
ExecutionTime = 0.08 s  ClockTime = 0 s

Time = 0.505

Courant Number mean: 0.225638 max: 0.96331
smoothSolver:  Solving for Ux, Initial residual = 2.18302e-06, Final residual = 2.18302e-06, No Iterations 0
smoothSolver:  Solving for Uy, Initial residual = 4.86961e-06, Final residual = 4.86961e-06, No Iterations 0
DICPCG:  Solving for p, Initial residual = 1.19047e-05, Final residual = 7.99901e-07, No Iterations 4
time step continuity errors : sum local = 5.09181e-10, global = -2.40079e-19, cumulative = 4.7923e-19
DICPCG:  Solving for p, Initial residual = 9.9715e-06, Final residual = 7.82087e-07, No Iterations 3
time step continuity errors : sum local = 5.02988e-10, global = 5.03346e-20, cumulative = 5.29565e-19
ExecutionTime = 0.09 s  ClockTime = 0 s

Time = 0.50625

Courant Number mean: 0.225638 max: 0.96331
smoothSolver:  Solving for Ux, Initial residual = 2.05219e-06, Final residual = 2.05219e-06, No Iterations 0
smoothSolver:  Solving for Uy, Initial residual = 4.83527e-06, Final residual = 4.83527e-06, No Iterations 0
DICPCG:  Solving for p, Initial residual = 8.18333e-06, Final residual = 8.53709e-07, No Iterations 2
time step continuity errors : sum local = 5.41346e-10, global = -5.79308e-20, cumulative = 4.71634e-19
DICPCG:  Solving for p, Initial residual = 7.66173e-06, Final residual = 9.85197e-07, No Iterations 1
time step continuity errors : sum local = 6.1742e-10, global = -2.6386e-19, cumulative = 2.07774e-19
ExecutionTime = 0.09 s  ClockTime = 0 s

Time = 0.5075

Courant Number mean: 0.225638 max: 0.96331
smoothSolver:  Solving for Ux, Initial residual = 1.97275e-06, Final residual = 1.97275e-06, No Iterations 0
smoothSolver:  Solving for Uy, Initial residual = 4.81049e-06, Final residual = 4.81049e-06, No Iterations 0
DICPCG:  Solving for p, Initial residual = 6.95648e-06, Final residual = 9.7957e-07, No Iterations 1
time step continuity errors : sum local = 6.14971e-10, global = 1.13362e-19, cumulative = 3.21136e-19
DICPCG:  Solving for p, Initial residual = 6.15626e-06, Final residual = 9.06317e-07, No Iterations 12
time step continuity errors : sum local = 5.92201e-10, global = -6.59332e-20, cumulative = 2.55203e-19
ExecutionTime = 0.1 s  ClockTime = 0 s

Time = 0.50875

Courant Number mean: 0.225638 max: 0.96331
smoothSolver:  Solving for Ux, Initial residual = 1.81128e-06, Final residual = 1.81128e-06, No Iterations 0
smoothSolver:  Solving for Uy, Initial residual = 5.0974e-06, Final residual = 5.0974e-06, No Iterations 0
DICPCG:  Solving for p, Initial residual = 5.12266e-06, Final residual = 7.18055e-07, No Iterations 13
time step continuity errors : sum local = 4.80627e-10, global = -8.88355e-20, cumulative = 1.66368e-19
DICPCG:  Solving for p, Initial residual = 4.78967e-06, Final residual = 8.28298e-07, No Iterations 10
time step continuity errors : sum local = 5.39302e-10, global = 1.1058e-19, cumulative = 2.76947e-19
ExecutionTime = 0.1 s  ClockTime = 0 s

Time = 0.51

Courant Number mean: 0.225638 max: 0.96331
smoothSolver:  Solving for Ux, Initial residual = 1.87756e-06, Final residual = 1.87756e-06, No Iterations 0
smoothSolver:  Solving for Uy, Initial residual = 4.74611e-06, Final residual = 4.74611e-06, No Iterations 0
DICPCG:  Solving for p, Initial residual = 4.44014e-06, Final residual = 7.42473e-07, No Iterations 6
time step continuity errors : sum local = 4.87965e-10, global = 5.21812e-20, cumulative = 3.29128e-19
DICPCG:  Solving for p, Initial residual = 3.6625e-06, Final residual = 9.69642e-07, No Iterations 4
time step continuity errors : sum local = 6.15376e-10, global = 2.09248e-19, cumulative = 5.38377e-19
ExecutionTime = 0.1 s  ClockTime = 0 s

Time = 0.51125

Courant Number mean: 0.225638 max: 0.96331
smoothSolver:  Solving for Ux, Initial residual = 1.85237e-06, Final residual = 1.85237e-06, No Iterations 0
smoothSolver:  Solving for Uy, Initial residual = 4.7796e-06, Final residual = 4.7796e-06, No Iterations 0
DICPCG:  Solving for p, Initial residual = 4.08882e-06, Final residual = 8.762e-07, No Iterations 3
time step continuity errors : sum local = 5.60703e-10, global = 7.88749e-20, cumulative = 6.17252e-19
DICPCG:  Solving for p, Initial residual = 2.73292e-06, Final residual = 7.98159e-07, No Iterations 13
time step continuity errors : sum local = 5.09738e-10, global = -1.00315e-20, cumulative = 6.0722e-19
ExecutionTime = 0.11 s  ClockTime = 0 s

Time = 0.5125

Courant Number mean: 0.225638 max: 0.96331
smoothSolver:  Solving for Ux, Initial residual = 1.77813e-06, Final residual = 1.77813e-06, No Iterations 0
smoothSolver:  Solving for Uy, Initial residual = 4.88775e-06, Final residual = 4.88775e-06, No Iterations 0
DICPCG:  Solving for p, Initial residual = 3.15627e-06, Final residual = 9.19106e-07, No Iterations 5
time step continuity errors : sum local = 5.69458e-10, global = -3.6178e-20, cumulative = 5.71042e-19
DICPCG:  Solving for p, Initial residual = 2.95133e-06, Final residual = 9.17961e-07, No Iterations 11
time step continuity errors : sum local = 5.62467e-10, global = -4.00426e-19, cumulative = 1.70616e-19
ExecutionTime = 0.11 s  ClockTime = 0 s

Time = 0.51375

Courant Number mean: 0.225639 max: 0.96331
smoothSolver:  Solving for Ux, Initial residual = 1.84931e-06, Final residual = 1.84931e-06, No Iterations 0
smoothSolver:  Solving for Uy, Initial residual = 4.65201e-06, Final residual = 4.65201e-06, No Iterations 0
DICPCG:  Solving for p, Initial residual = 2.9088e-06, Final residual = 9.359e-07, No Iterations 7
time step continuity errors : sum local = 5.79867e-10, global = -1.14684e-19, cumulative = 5.59318e-20
DICPCG:  Solving for p, Initial residual = 3.0164e-06, Final residual = 6.79794e-07, No Iterations 4
time step continuity errors : sum local = 4.35923e-10, global = -3.29961e-19, cumulative = -2.74029e-19
ExecutionTime = 0.12 s  ClockTime = 0 s

Time = 0.515

Courant Number mean: 0.225639 max: 0.96331
smoothSolver:  Solving for Ux, Initial residual = 1.81711e-06, Final residual = 1.81711e-06, No Iterations 0
smoothSolver:  Solving for Uy, Initial residual = 4.67675e-06, Final residual = 4.67675e-06, No Iterations 0
DICPCG:  Solving for p, Initial residual = 2.62776e-06, Final residual = 7.09792e-07, No Iterations 2
time step continuity errors : sum local = 4.53218e-10, global = 6.35821e-20, cumulative = -2.10447e-19
DICPCG:  Solving for p, Initial residual = 2.52252e-06, Final residual = 8.74104e-07, No Iterations 2
time step continuity errors : sum local = 5.48911e-10, global = -7.9917e-20, cumulative = -2.90364e-19
ExecutionTime = 0.12 s  ClockTime = 0 s

Time = 0.51625

Courant Number mean: 0.225639 max: 0.96331
smoothSolver:  Solving for Ux, Initial residual = 1.80152e-06, Final residual = 1.80152e-06, No Iterations 0
smoothSolver:  Solving for Uy, Initial residual = 4.66596e-06, Final residual = 4.66596e-06, No Iterations 0
DICPCG:  Solving for p, Initial residual = 2.58235e-06, Final residual = 6.25448e-07, No Iterations 2
time step continuity errors : sum local = 4.0656e-10, global = -4.69042e-20, cumulative = -3.37268e-19
DICPCG:  Solving for p, Initial residual = 2.15525e-06, Final residual = 9.89429e-07, No Iterations 1
time step continuity errors : sum local = 6.14376e-10, global = 3.18704e-20, cumulative = -3.05398e-19
ExecutionTime = 0.12 s  ClockTime = 0 s

Time = 0.5175

Courant Number mean: 0.225639 max: 0.96331
smoothSolver:  Solving for Ux, Initial residual = 1.78921e-06, Final residual = 1.78921e-06, No Iterations 0
smoothSolver:  Solving for Uy, Initial residual = 4.6585e-06, Final residual = 4.6585e-06, No Iterations 0
DICPCG:  Solving for p, Initial residual = 2.2956e-06, Final residual = 6.36079e-07, No Iterations 1
time step continuity errors : sum local = 4.13233e-10, global = 2.47758e-20, cumulative = -2.80622e-19
DICPCG:  Solving for p, Initial residual = 1.79288e-06, Final residual = 9.31753e-07, No Iterations 1
time step continuity errors : sum local = 5.81439e-10, global = -2.05179e-19, cumulative = -4.85801e-19
ExecutionTime = 0.13 s  ClockTime = 0 s

Time = 0.51875

Courant Number mean: 0.225639 max: 0.96331
smoothSolver:  Solving for Ux, Initial residual = 1.77897e-06, Final residual = 1.77897e-06, No Iterations 0
smoothSolver:  Solving for Uy, Initial residual = 4.64638e-06, Final residual = 4.64638e-06, No Iterations 0
DICPCG:  Solving for p, Initial residual = 2.01854e-06, Final residual = 8.97167e-07, No Iterations 1
time step continuity errors : sum local = 5.61569e-10, global = -2.32382e-19, cumulative = -7.18183e-19
DICPCG:  Solving for p, Initial residual = 1.89312e-06, Final residual = 9.59241e-07, No Iterations 1
time step continuity errors : sum local = 5.96836e-10, global = 2.14064e-19, cumulative = -5.04119e-19
ExecutionTime = 0.13 s  ClockTime = 0 s

Time = 0.52

Courant Number mean: 0.225639 max: 0.96331
smoothSolver:  Solving for Ux, Initial residual = 1.76849e-06, Final residual = 1.76849e-06, No Iterations 0
smoothSolver:  Solving for Uy, Initial residual = 4.6347e-06, Final residual = 4.6347e-06, No Iterations 0
DICPCG:  Solving for p, Initial residual = 1.87705e-06, Final residual = 9.46177e-07, No Iterations 1
time step continuity errors : sum local = 5.89374e-10, global = -1.38903e-19, cumulative = -6.43022e-19
DICPCG:  Solving for p, Initial residual = 1.79304e-06, Final residual = 9.2813e-07, No Iterations 1
time step continuity errors : sum local = 5.7913e-10, global = -2.22645e-19, cumulative = -8.65667e-19
ExecutionTime = 0.14 s  ClockTime = 0 s

Time = 0.52125

Courant Number mean: 0.225639 max: 0.96331
smoothSolver:  Solving for Ux, Initial residual = 1.75801e-06, Final residual = 1.75801e-06, No Iterations 0
smoothSolver:  Solving for Uy, Initial residual = 4.62272e-06, Final residual = 4.62272e-06, No Iterations 0
DICPCG:  Solving for p, Initial residual = 1.70525e-06, Final residual = 9.00148e-07, No Iterations 1
time step continuity errors : sum local = 5.63258e-10, global = 2.36685e-19, cumulative = -6.28982e-19
DICPCG:  Solving for p, Initial residual = 1.61738e-06, Final residual = 8.70515e-07, No Iterations 1
time step continuity errors : sum local = 5.4647e-10, global = 2.41798e-19, cumulative = -3.87184e-19
ExecutionTime = 0.15 s  ClockTime = 0 s

Time = 0.5225

Courant Number mean: 0.225639 max: 0.96331
smoothSolver:  Solving for Ux, Initial residual = 1.74778e-06, Final residual = 1.74778e-06, No Iterations 0
smoothSolver:  Solving for Uy, Initial residual = 4.61014e-06, Final residual = 4.61014e-06, No Iterations 0
DICPCG:  Solving for p, Initial residual = 1.52503e-06, Final residual = 8.51965e-07, No Iterations 1
time step continuity errors : sum local = 5.36024e-10, global = 1.8184e-19, cumulative = -2.05344e-19
DICPCG:  Solving for p, Initial residual = 1.4538e-06, Final residual = 8.35884e-07, No Iterations 1
time step continuity errors : sum local = 5.27004e-10, global = -5.90193e-20, cumulative = -2.64364e-19
ExecutionTime = 0.15 s  ClockTime = 0 s

Time = 0.52375

Courant Number mean: 0.225639 max: 0.96331
smoothSolver:  Solving for Ux, Initial residual = 1.73778e-06, Final residual = 1.73778e-06, No Iterations 0
smoothSolver:  Solving for Uy, Initial residual = 4.59714e-06, Final residual = 4.59714e-06, No Iterations 0
DICPCG:  Solving for p, Initial residual = 1.38629e-06, Final residual = 8.26714e-07, No Iterations 1
time step continuity errors : sum local = 5.21933e-10, global = 2.33829e-19, cumulative = -3.05347e-20
DICPCG:  Solving for p, Initial residual = 1.33143e-06, Final residual = 8.16634e-07, No Iterations 1
time step continuity errors : sum local = 5.16354e-10, global = 5.20618e-20, cumulative = 2.15271e-20
ExecutionTime = 0.15 s  ClockTime = 0 s

Time = 0.525

Courant Number mean: 0.225639 max: 0.96331
smoothSolver:  Solving for Ux, Initial residual = 1.728e-06, Final residual = 1.728e-06, No Iterations 0
smoothSolver:  Solving for Uy, Initial residual = 4.58391e-06, Final residual = 4.58391e-06, No Iterations 0
DICPCG:  Solving for p, Initial residual = 1.27831e-06, Final residual = 8.06134e-07, No Iterations 1
time step continuity errors : sum local = 5.10533e-10, global = -1.18624e-19, cumulative = -9.70965e-20
DICPCG:  Solving for p, Initial residual = 1.23015e-06, Final residual = 7.92087e-07, No Iterations 1
time step continuity errors : sum local = 5.02691e-10, global = -2.06731e-19, cumulative = -3.03827e-19
ExecutionTime = 0.17 s  ClockTime = 0 s

Time = 0.52625

Courant Number mean: 0.225639 max: 0.96331
smoothSolver:  Solving for Ux, Initial residual = 1.71847e-06, Final residual = 1.71847e-06, No Iterations 0
smoothSolver:  Solving for Uy, Initial residual = 4.57068e-06, Final residual = 4.57068e-06, No Iterations 0
DICPCG:  Solving for p, Initial residual = 1.1807e-06, Final residual = 7.76024e-07, No Iterations 1
time step continuity errors : sum local = 4.93685e-10, global = 1.68896e-19, cumulative = -1.34931e-19
DICPCG:  Solving for p, Initial residual = 1.1365e-06, Final residual = 7.56375e-07, No Iterations 1
time step continuity errors : sum local = 4.82627e-10, global = 4.0808e-20, cumulative = -9.41231e-20
ExecutionTime = 0.17 s  ClockTime = 0 s

Time = 0.5275

Courant Number mean: 0.225639 max: 0.96331
smoothSolver:  Solving for Ux, Initial residual = 1.70918e-06, Final residual = 1.70918e-06, No Iterations 0
smoothSolver:  Solving for Uy, Initial residual = 4.55758e-06, Final residual = 4.55758e-06, No Iterations 0
DICPCG:  Solving for p, Initial residual = 1.08948e-06, Final residual = 7.37325e-07, No Iterations 1
time step continuity errors : sum local = 4.71889e-10, global = 2.83561e-20, cumulative = -6.5767e-20
DICPCG:  Solving for p, Initial residual = 1.04798e-06, Final residual = 7.15884e-07, No Iterations 1
time step continuity errors : sum local = 4.59778e-10, global = 1.04488e-20, cumulative = -5.53182e-20
ExecutionTime = 0.18 s  ClockTime = 0 s

Time = 0.52875

Courant Number mean: 0.22564 max: 0.96331
smoothSolver:  Solving for Ux, Initial residual = 1.70008e-06, Final residual = 1.70008e-06, No Iterations 0
smoothSolver:  Solving for Uy, Initial residual = 4.54466e-06, Final residual = 4.54466e-06, No Iterations 0
DICPCG:  Solving for p, Initial residual = 1.00529e-06, Final residual = 6.9836e-07, No Iterations 1
time step continuity errors : sum local = 4.49878e-10, global = 5.75408e-21, cumulative = -4.95641e-20
DICPCG:  Solving for p, Initial residual = 9.6875e-07, Final residual = 9.6875e-07, No Iterations 0
time step continuity errors : sum local = 6.0385e-10, global = -2.05724e-20, cumulative = -7.01365e-20
ExecutionTime = 0.18 s  ClockTime = 0 s

Time = 0.53

Courant Number mean: 0.22564 max: 0.96331
smoothSolver:  Solving for Ux, Initial residual = 1.69269e-06, Final residual = 1.69269e-06, No Iterations 0
smoothSolver:  Solving for Uy, Initial residual = 4.53002e-06, Final residual = 4.53002e-06, No Iterations 0
DICPCG:  Solving for p, Initial residual = 8.25284e-07, Final residual = 8.25284e-07, No Iterations 0
time step continuity errors : sum local = 5.2216e-10, global = -1.53171e-19, cumulative = -2.23307e-19
DICPCG:  Solving for p, Initial residual = 1.04941e-06, Final residual = 6.41498e-07, No Iterations 1
time step continuity errors : sum local = 4.17578e-10, global = -9.45506e-20, cumulative = -3.17858e-19
ExecutionTime = 0.18 s  ClockTime = 0 s

Time = 0.53125

Courant Number mean: 0.22564 max: 0.96331
smoothSolver:  Solving for Ux, Initial residual = 1.6863e-06, Final residual = 1.6863e-06, No Iterations 0
smoothSolver:  Solving for Uy, Initial residual = 4.51735e-06, Final residual = 4.51735e-06, No Iterations 0
DICPCG:  Solving for p, Initial residual = 9.15026e-07, Final residual = 9.15026e-07, No Iterations 0
time step continuity errors : sum local = 5.73326e-10, global = -1.81413e-19, cumulative = -4.99271e-19
DICPCG:  Solving for p, Initial residual = 8.63856e-07, Final residual = 8.63856e-07, No Iterations 0
time step continuity errors : sum local = 5.44192e-10, global = -2.65771e-19, cumulative = -7.65041e-19
ExecutionTime = 0.19 s  ClockTime = 0 s

Time = 0.5325

Courant Number mean: 0.22564 max: 0.96331
smoothSolver:  Solving for Ux, Initial residual = 1.68044e-06, Final residual = 1.68044e-06, No Iterations 0
smoothSolver:  Solving for Uy, Initial residual = 4.50039e-06, Final residual = 4.50039e-06, No Iterations 0
DICPCG:  Solving for p, Initial residual = 1.05e-06, Final residual = 6.8324e-07, No Iterations 1
time step continuity errors : sum local = 4.41372e-10, global = -3.66924e-20, cumulative = -8.01733e-19
DICPCG:  Solving for p, Initial residual = 9.36929e-07, Final residual = 9.36929e-07, No Iterations 0
time step continuity errors : sum local = 5.85822e-10, global = -1.05156e-19, cumulative = -9.06889e-19
ExecutionTime = 0.19 s  ClockTime = 0 s

Time = 0.53375

Courant Number mean: 0.22564 max: 0.96331
smoothSolver:  Solving for Ux, Initial residual = 1.67368e-06, Final residual = 1.67368e-06, No Iterations 0
smoothSolver:  Solving for Uy, Initial residual = 4.48661e-06, Final residual = 4.48661e-06, No Iterations 0
DICPCG:  Solving for p, Initial residual = 9.83407e-07, Final residual = 9.83407e-07, No Iterations 0
time step continuity errors : sum local = 6.12287e-10, global = -1.08812e-19, cumulative = -1.0157e-18
DICPCG:  Solving for p, Initial residual = 1.14138e-06, Final residual = 7.88671e-07, No Iterations 1
time step continuity errors : sum local = 5.01417e-10, global = -5.7312e-20, cumulative = -1.07301e-18
ExecutionTime = 0.19 s  ClockTime = 0 s

Time = 0.535

Courant Number mean: 0.22564 max: 0.96331
smoothSolver:  Solving for Ux, Initial residual = 1.66701e-06, Final residual = 1.66701e-06, No Iterations 0
smoothSolver:  Solving for Uy, Initial residual = 4.47288e-06, Final residual = 4.47288e-06, No Iterations 0
DICPCG:  Solving for p, Initial residual = 1.07625e-06, Final residual = 8.49641e-07, No Iterations 1
time step continuity errors : sum local = 5.36134e-10, global = -1.17161e-19, cumulative = -1.19017e-18
DICPCG:  Solving for p, Initial residual = 1.03729e-06, Final residual = 8.99388e-07, No Iterations 1
time step continuity errors : sum local = 5.64471e-10, global = 2.73726e-19, cumulative = -9.16448e-19
ExecutionTime = 0.19 s  ClockTime = 0 s

Time = 0.53625

Courant Number mean: 0.22564 max: 0.96331
smoothSolver:  Solving for Ux, Initial residual = 1.65677e-06, Final residual = 1.65677e-06, No Iterations 0
smoothSolver:  Solving for Uy, Initial residual = 4.45493e-06, Final residual = 4.45493e-06, No Iterations 0
DICPCG:  Solving for p, Initial residual = 1.12755e-06, Final residual = 8.49072e-07, No Iterations 1
time step continuity errors : sum local = 5.35831e-10, global = 1.77158e-19, cumulative = -7.39289e-19
DICPCG:  Solving for p, Initial residual = 1.03091e-06, Final residual = 8.7993e-07, No Iterations 1
time step continuity errors : sum local = 5.53422e-10, global = -8.1419e-20, cumulative = -8.20708e-19
ExecutionTime = 0.2 s  ClockTime = 0 s

Time = 0.5375

Courant Number mean: 0.22564 max: 0.96331
smoothSolver:  Solving for Ux, Initial residual = 1.64802e-06, Final residual = 1.64802e-06, No Iterations 0
smoothSolver:  Solving for Uy, Initial residual = 4.43864e-06, Final residual = 4.43864e-06, No Iterations 0
DICPCG:  Solving for p, Initial residual = 1.05575e-06, Final residual = 8.49443e-07, No Iterations 1
time step continuity errors : sum local = 5.36086e-10, global = -2.57524e-19, cumulative = -1.07823e-18
DICPCG:  Solving for p, Initial residual = 1.01e-06, Final residual = 8.43683e-07, No Iterations 1
time step continuity errors : sum local = 5.32837e-10, global = -1.00553e-19, cumulative = -1.17878e-18
ExecutionTime = 0.2 s  ClockTime = 0 s

Time = 0.53875

Courant Number mean: 0.22564 max: 0.96331
smoothSolver:  Solving for Ux, Initial residual = 1.64016e-06, Final residual = 1.64016e-06, No Iterations 0
smoothSolver:  Solving for Uy, Initial residual = 4.4226e-06, Final residual = 4.4226e-06, No Iterations 0
DICPCG:  Solving for p, Initial residual = 9.88774e-07, Final residual = 9.88774e-07, No Iterations 0
time step continuity errors : sum local = 6.15459e-10, global = -3.94159e-19, cumulative = -1.57294e-18
DICPCG:  Solving for p, Initial residual = 1.01861e-06, Final residual = 8.00271e-07, No Iterations 1
time step continuity errors : sum local = 5.08161e-10, global = -1.56125e-19, cumulative = -1.72907e-18
ExecutionTime = 0.2 s  ClockTime = 0 s

Time = 0.54

Courant Number mean: 0.22564 max: 0.96331
smoothSolver:  Solving for Ux, Initial residual = 1.63455e-06, Final residual = 1.63455e-06, No Iterations 0
smoothSolver:  Solving for Uy, Initial residual = 4.40777e-06, Final residual = 4.40777e-06, No Iterations 0
DICPCG:  Solving for p, Initial residual = 9.77062e-07, Final residual = 9.77062e-07, No Iterations 0
time step continuity errors : sum local = 6.08828e-10, global = 3.62841e-19, cumulative = -1.36623e-18
DICPCG:  Solving for p, Initial residual = 1.05778e-06, Final residual = 7.80236e-07, No Iterations 1
time step continuity errors : sum local = 4.96803e-10, global = 1.23033e-19, cumulative = -1.24319e-18
ExecutionTime = 0.21 s  ClockTime = 0 s

Time = 0.54125

Courant Number mean: 0.22564 max: 0.96331
smoothSolver:  Solving for Ux, Initial residual = 1.62858e-06, Final residual = 1.62858e-06, No Iterations 0
smoothSolver:  Solving for Uy, Initial residual = 4.39209e-06, Final residual = 4.39209e-06, No Iterations 0
DICPCG:  Solving for p, Initial residual = 9.55765e-07, Final residual = 9.55765e-07, No Iterations 0
time step continuity errors : sum local = 5.96754e-10, global = -3.18932e-19, cumulative = -1.56213e-18
DICPCG:  Solving for p, Initial residual = 1.04016e-06, Final residual = 7.83785e-07, No Iterations 1
time step continuity errors : sum local = 4.98871e-10, global = 1.27322e-19, cumulative = -1.4348e-18
ExecutionTime = 0.21 s  ClockTime = 0 s

Time = 0.5425

Courant Number mean: 0.225641 max: 0.96331
smoothSolver:  Solving for Ux, Initial residual = 1.62279e-06, Final residual = 1.62279e-06, No Iterations 0
smoothSolver:  Solving for Uy, Initial residual = 4.3753e-06, Final residual = 4.3753e-06, No Iterations 0
DICPCG:  Solving for p, Initial residual = 9.64839e-07, Final residual = 9.64839e-07, No Iterations 0
time step continuity errors : sum local = 6.01967e-10, global = 1.58459e-19, cumulative = -1.27634e-18
DICPCG:  Solving for p, Initial residual = 1.05599e-06, Final residual = 7.79759e-07, No Iterations 1
time step continuity errors : sum local = 4.96633e-10, global = -2.51398e-20, cumulative = -1.30148e-18
ExecutionTime = 0.21 s  ClockTime = 0 s

Time = 0.54375

Courant Number mean: 0.225641 max: 0.96331
smoothSolver:  Solving for Ux, Initial residual = 1.61695e-06, Final residual = 1.61695e-06, No Iterations 0
smoothSolver:  Solving for Uy, Initial residual = 4.3588e-06, Final residual = 4.3588e-06, No Iterations 0
DICPCG:  Solving for p, Initial residual = 9.70224e-07, Final residual = 9.70224e-07, No Iterations 0
time step continuity errors : sum local = 6.0509e-10, global = 1.4381e-20, cumulative = -1.2871e-18
DICPCG:  Solving for p, Initial residual = 1.07403e-06, Final residual = 7.78272e-07, No Iterations 1
time step continuity errors : sum local = 4.95833e-10, global = 2.81781e-20, cumulative = -1.25893e-18
ExecutionTime = 0.22 s  ClockTime = 0 s

Time = 0.545

Courant Number mean: 0.225641 max: 0.96331
smoothSolver:  Solving for Ux, Initial residual = 1.61123e-06, Final residual = 1.61123e-06, No Iterations 0
smoothSolver:  Solving for Uy, Initial residual = 4.34128e-06, Final residual = 4.34128e-06, No Iterations 0
DICPCG:  Solving for p, Initial residual = 9.79153e-07, Final residual = 9.79153e-07, No Iterations 0
time step continuity errors : sum local = 6.10218e-10, global = 8.45984e-20, cumulative = -1.17433e-18
DICPCG:  Solving for p, Initial residual = 1.09369e-06, Final residual = 7.80105e-07, No Iterations 1
time step continuity errors : sum local = 4.96923e-10, global = 2.98523e-20, cumulative = -1.14447e-18
ExecutionTime = 0.22 s  ClockTime = 0 s

Time = 0.54625

Courant Number mean: 0.225641 max: 0.96331
smoothSolver:  Solving for Ux, Initial residual = 1.60531e-06, Final residual = 1.60531e-06, No Iterations 0
smoothSolver:  Solving for Uy, Initial residual = 4.32397e-06, Final residual = 4.32397e-06, No Iterations 0
DICPCG:  Solving for p, Initial residual = 9.92805e-07, Final residual = 9.92805e-07, No Iterations 0
time step continuity errors : sum local = 6.1804e-10, global = -1.99219e-19, cumulative = -1.34369e-18
DICPCG:  Solving for p, Initial residual = 1.11864e-06, Final residual = 7.85174e-07, No Iterations 1
time step continuity errors : sum local = 4.99842e-10, global = -1.44827e-19, cumulative = -1.48852e-18
ExecutionTime = 0.22 s  ClockTime = 0 s

Time = 0.5475

Courant Number mean: 0.225641 max: 0.96331
smoothSolver:  Solving for Ux, Initial residual = 1.59952e-06, Final residual = 1.59952e-06, No Iterations 0
smoothSolver:  Solving for Uy, Initial residual = 4.30581e-06, Final residual = 4.30581e-06, No Iterations 0
DICPCG:  Solving for p, Initial residual = 1.01213e-06, Final residual = 8.10426e-07, No Iterations 1
time step continuity errors : sum local = 5.14247e-10, global = -2.11212e-19, cumulative = -1.69973e-18
DICPCG:  Solving for p, Initial residual = 9.50471e-07, Final residual = 9.50471e-07, No Iterations 0
time step continuity errors : sum local = 5.93994e-10, global = 1.12909e-19, cumulative = -1.58682e-18
ExecutionTime = 0.23 s  ClockTime = 0 s

Time = 0.54875

Courant Number mean: 0.225641 max: 0.96331
smoothSolver:  Solving for Ux, Initial residual = 1.59279e-06, Final residual = 1.59279e-06, No Iterations 0
smoothSolver:  Solving for Uy, Initial residual = 4.28561e-06, Final residual = 4.28561e-06, No Iterations 0
DICPCG:  Solving for p, Initial residual = 1.04498e-06, Final residual = 7.78079e-07, No Iterations 1
time step continuity errors : sum local = 4.95843e-10, global = -2.59327e-19, cumulative = -1.84615e-18
DICPCG:  Solving for p, Initial residual = 9.97259e-07, Final residual = 9.97259e-07, No Iterations 0
time step continuity errors : sum local = 6.20646e-10, global = -9.80804e-20, cumulative = -1.94423e-18
ExecutionTime = 0.23 s  ClockTime = 0 s

Time = 0.55

Courant Number mean: 0.225641 max: 0.96331
smoothSolver:  Solving for Ux, Initial residual = 1.58716e-06, Final residual = 1.58716e-06, No Iterations 0
smoothSolver:  Solving for Uy, Initial residual = 4.26836e-06, Final residual = 4.26836e-06, No Iterations 0
DICPCG:  Solving for p, Initial residual = 1.16433e-06, Final residual = 7.45546e-07, No Iterations 1
time step continuity errors : sum local = 4.77322e-10, global = 3.33279e-21, cumulative = -1.9409e-18
DICPCG:  Solving for p, Initial residual = 9.62465e-07, Final residual = 9.62465e-07, No Iterations 0
time step continuity errors : sum local = 6.00828e-10, global = 2.81239e-19, cumulative = -1.65966e-18
ExecutionTime = 0.25 s  ClockTime = 1 s

Time = 0.55125

Courant Number mean: 0.225641 max: 0.96331
smoothSolver:  Solving for Ux, Initial residual = 1.58141e-06, Final residual = 1.58141e-06, No Iterations 0
smoothSolver:  Solving for Uy, Initial residual = 4.25106e-06, Final residual = 4.25106e-06, No Iterations 0
DICPCG:  Solving for p, Initial residual = 1.13331e-06, Final residual = 7.59676e-07, No Iterations 1
time step continuity errors : sum local = 4.85347e-10, global = -2.92402e-20, cumulative = -1.6889e-18
DICPCG:  Solving for p, Initial residual = 9.83561e-07, Final residual = 9.83561e-07, No Iterations 0
time step continuity errors : sum local = 6.12827e-10, global = -1.25444e-19, cumulative = -1.81434e-18
ExecutionTime = 0.25 s  ClockTime = 1 s

Time = 0.5525

Courant Number mean: 0.225641 max: 0.96331
smoothSolver:  Solving for Ux, Initial residual = 1.57554e-06, Final residual = 1.57554e-06, No Iterations 0
smoothSolver:  Solving for Uy, Initial residual = 4.23319e-06, Final residual = 4.23319e-06, No Iterations 0
DICPCG:  Solving for p, Initial residual = 1.16101e-06, Final residual = 7.65178e-07, No Iterations 1
time step continuity errors : sum local = 4.88454e-10, global = 1.5758e-19, cumulative = -1.65676e-18
DICPCG:  Solving for p, Initial residual = 1.00616e-06, Final residual = 8.00721e-07, No Iterations 1
time step continuity errors : sum local = 5.08648e-10, global = 1.8937e-19, cumulative = -1.46739e-18
ExecutionTime = 0.25 s  ClockTime = 1 s

Time = 0.55375

Courant Number mean: 0.225641 max: 0.96331
smoothSolver:  Solving for Ux, Initial residual = 1.5687e-06, Final residual = 1.5687e-06, No Iterations 0
smoothSolver:  Solving for Uy, Initial residual = 4.21103e-06, Final residual = 4.21103e-06, No Iterations 0
DICPCG:  Solving for p, Initial residual = 9.5998e-07, Final residual = 9.5998e-07, No Iterations 0
time step continuity errors : sum local = 5.9932e-10, global = 8.18398e-20, cumulative = -1.38555e-18
DICPCG:  Solving for p, Initial residual = 1.05095e-06, Final residual = 7.54023e-07, No Iterations 1
time step continuity errors : sum local = 4.82008e-10, global = 1.49696e-19, cumulative = -1.23586e-18
ExecutionTime = 0.26 s  ClockTime = 1 s

Time = 0.555

Courant Number mean: 0.225641 max: 0.96331
smoothSolver:  Solving for Ux, Initial residual = 1.56335e-06, Final residual = 1.56335e-06, No Iterations 0
smoothSolver:  Solving for Uy, Initial residual = 4.19515e-06, Final residual = 4.19515e-06, No Iterations 0
DICPCG:  Solving for p, Initial residual = 1.02826e-06, Final residual = 7.311e-07, No Iterations 1
time step continuity errors : sum local = 4.68906e-10, global = 2.27741e-20, cumulative = -1.21308e-18
DICPCG:  Solving for p, Initial residual = 8.74384e-07, Final residual = 8.74384e-07, No Iterations 0
time step continuity errors : sum local = 5.50478e-10, global = -3.53437e-19, cumulative = -1.56652e-18
ExecutionTime = 0.27 s  ClockTime = 1 s

Time = 0.55625

Courant Number mean: 0.225641 max: 0.96331
smoothSolver:  Solving for Ux, Initial residual = 1.55711e-06, Final residual = 1.55711e-06, No Iterations 0
smoothSolver:  Solving for Uy, Initial residual = 4.17581e-06, Final residual = 4.17581e-06, No Iterations 0
DICPCG:  Solving for p, Initial residual = 9.8357e-07, Final residual = 9.8357e-07, No Iterations 0
time step continuity errors : sum local = 6.12635e-10, global = 2.16859e-19, cumulative = -1.34966e-18
DICPCG:  Solving for p, Initial residual = 1.05133e-06, Final residual = 6.96333e-07, No Iterations 1
time step continuity errors : sum local = 4.49047e-10, global = -1.87879e-19, cumulative = -1.53754e-18
ExecutionTime = 0.27 s  ClockTime = 1 s

Time = 0.5575

Courant Number mean: 0.225642 max: 0.96331
smoothSolver:  Solving for Ux, Initial residual = 1.55208e-06, Final residual = 1.55208e-06, No Iterations 0
smoothSolver:  Solving for Uy, Initial residual = 4.16067e-06, Final residual = 4.16067e-06, No Iterations 0
DICPCG:  Solving for p, Initial residual = 1.00098e-06, Final residual = 6.93621e-07, No Iterations 1
time step continuity errors : sum local = 4.47457e-10, global = 1.8179e-19, cumulative = -1.35575e-18
DICPCG:  Solving for p, Initial residual = 8.29858e-07, Final residual = 8.29858e-07, No Iterations 0
time step continuity errors : sum local = 5.25017e-10, global = 1.43828e-20, cumulative = -1.34137e-18
ExecutionTime = 0.27 s  ClockTime = 1 s

Time = 0.55875

Courant Number mean: 0.225642 max: 0.96331
smoothSolver:  Solving for Ux, Initial residual = 1.54594e-06, Final residual = 1.54594e-06, No Iterations 0
smoothSolver:  Solving for Uy, Initial residual = 4.14147e-06, Final residual = 4.14147e-06, No Iterations 0
DICPCG:  Solving for p, Initial residual = 9.34808e-07, Final residual = 9.34808e-07, No Iterations 0
time step continuity errors : sum local = 5.84766e-10, global = -1.54001e-19, cumulative = -1.49537e-18
DICPCG:  Solving for p, Initial residual = 1.00038e-06, Final residual = 6.93324e-07, No Iterations 1
time step continuity errors : sum local = 4.47242e-10, global = -2.97014e-20, cumulative = -1.52507e-18
ExecutionTime = 0.28 s  ClockTime = 1 s

Time = 0.56

Courant Number mean: 0.225642 max: 0.96331
smoothSolver:  Solving for Ux, Initial residual = 1.54094e-06, Final residual = 1.54094e-06, No Iterations 0
smoothSolver:  Solving for Uy, Initial residual = 4.12612e-06, Final residual = 4.12612e-06, No Iterations 0
DICPCG:  Solving for p, Initial residual = 1.00996e-06, Final residual = 6.80263e-07, No Iterations 1
time step continuity errors : sum local = 4.39782e-10, global = 5.12484e-20, cumulative = -1.47382e-18
DICPCG:  Solving for p, Initial residual = 8.33958e-07, Final residual = 8.33958e-07, No Iterations 0
time step continuity errors : sum local = 5.27291e-10, global = -1.94647e-19, cumulative = -1.66847e-18
ExecutionTime = 0.28 s  ClockTime = 1 s

Time = 0.56125

Courant Number mean: 0.225642 max: 0.96331
smoothSolver:  Solving for Ux, Initial residual = 1.53501e-06, Final residual = 1.53501e-06, No Iterations 0
smoothSolver:  Solving for Uy, Initial residual = 4.10748e-06, Final residual = 4.10748e-06, No Iterations 0
DICPCG:  Solving for p, Initial residual = 9.50337e-07, Final residual = 9.50337e-07, No Iterations 0
time step continuity errors : sum local = 5.93554e-10, global = -5.56284e-20, cumulative = -1.7241e-18
DICPCG:  Solving for p, Initial residual = 1.02114e-06, Final residual = 7.08443e-07, No Iterations 1
time step continuity errors : sum local = 4.55823e-10, global = 3.52159e-20, cumulative = -1.68888e-18
ExecutionTime = 0.28 s  ClockTime = 1 s

Time = 0.5625

Courant Number mean: 0.225642 max: 0.96331
smoothSolver:  Solving for Ux, Initial residual = 1.52997e-06, Final residual = 1.52997e-06, No Iterations 0
smoothSolver:  Solving for Uy, Initial residual = 4.09209e-06, Final residual = 4.09209e-06, No Iterations 0
DICPCG:  Solving for p, Initial residual = 1.04798e-06, Final residual = 7.00167e-07, No Iterations 1
time step continuity errors : sum local = 4.51121e-10, global = -3.31577e-19, cumulative = -2.02046e-18
DICPCG:  Solving for p, Initial residual = 8.72192e-07, Final residual = 8.72192e-07, No Iterations 0
time step continuity errors : sum local = 5.49073e-10, global = 9.07816e-20, cumulative = -1.92968e-18
ExecutionTime = 0.29 s  ClockTime = 1 s

Time = 0.56375

Courant Number mean: 0.225642 max: 0.96331
smoothSolver:  Solving for Ux, Initial residual = 1.52409e-06, Final residual = 1.52409e-06, No Iterations 0
smoothSolver:  Solving for Uy, Initial residual = 4.07376e-06, Final residual = 4.07376e-06, No Iterations 0
DICPCG:  Solving for p, Initial residual = 1.00039e-06, Final residual = 7.40374e-07, No Iterations 1
time step continuity errors : sum local = 4.74054e-10, global = -5.60116e-20, cumulative = -1.98569e-18
DICPCG:  Solving for p, Initial residual = 1.03119e-06, Final residual = 7.22461e-07, No Iterations 1
time step continuity errors : sum local = 4.63902e-10, global = -2.99959e-19, cumulative = -2.28565e-18
ExecutionTime = 0.29 s  ClockTime = 1 s

Time = 0.565

Courant Number mean: 0.225642 max: 0.96331
smoothSolver:  Solving for Ux, Initial residual = 1.5182e-06, Final residual = 1.5182e-06, No Iterations 0
smoothSolver:  Solving for Uy, Initial residual = 4.05417e-06, Final residual = 4.05417e-06, No Iterations 0
DICPCG:  Solving for p, Initial residual = 9.14356e-07, Final residual = 9.14356e-07, No Iterations 0
time step continuity errors : sum local = 5.73169e-10, global = 2.10621e-19, cumulative = -2.07503e-18
DICPCG:  Solving for p, Initial residual = 1.02895e-06, Final residual = 7.38394e-07, No Iterations 1
time step continuity errors : sum local = 4.73054e-10, global = 2.30909e-20, cumulative = -2.05194e-18
ExecutionTime = 0.29 s  ClockTime = 1 s

Time = 0.56625

Courant Number mean: 0.225642 max: 0.96331
smoothSolver:  Solving for Ux, Initial residual = 1.5129e-06, Final residual = 1.5129e-06, No Iterations 0
smoothSolver:  Solving for Uy, Initial residual = 4.03886e-06, Final residual = 4.03886e-06, No Iterations 0
DICPCG:  Solving for p, Initial residual = 1.06322e-06, Final residual = 7.22273e-07, No Iterations 1
time step continuity errors : sum local = 4.63961e-10, global = -1.1728e-19, cumulative = -2.16922e-18
DICPCG:  Solving for p, Initial residual = 9.15244e-07, Final residual = 9.15244e-07, No Iterations 0
time step continuity errors : sum local = 5.73842e-10, global = 2.17839e-19, cumulative = -1.95138e-18
ExecutionTime = 0.29 s  ClockTime = 1 s

Time = 0.5675

Courant Number mean: 0.225642 max: 0.96331
smoothSolver:  Solving for Ux, Initial residual = 1.50716e-06, Final residual = 1.50716e-06, No Iterations 0
smoothSolver:  Solving for Uy, Initial residual = 4.02188e-06, Final residual = 4.02188e-06, No Iterations 0
DICPCG:  Solving for p, Initial residual = 1.05792e-06, Final residual = 7.39174e-07, No Iterations 1
time step continuity errors : sum local = 4.73699e-10, global = 4.4364e-22, cumulative = -1.95093e-18
DICPCG:  Solving for p, Initial residual = 1.04042e-06, Final residual = 7.43821e-07, No Iterations 1
time step continuity errors : sum local = 4.76467e-10, global = -7.92444e-20, cumulative = -2.03018e-18
ExecutionTime = 0.29 s  ClockTime = 1 s

Time = 0.56875

Courant Number mean: 0.225642 max: 0.96331
smoothSolver:  Solving for Ux, Initial residual = 1.5011e-06, Final residual = 1.5011e-06, No Iterations 0
smoothSolver:  Solving for Uy, Initial residual = 4.00432e-06, Final residual = 4.00432e-06, No Iterations 0
DICPCG:  Solving for p, Initial residual = 9.41536e-07, Final residual = 9.41536e-07, No Iterations 0
time step continuity errors : sum local = 5.89051e-10, global = 8.31506e-20, cumulative = -1.94703e-18
DICPCG:  Solving for p, Initial residual = 1.05847e-06, Final residual = 7.5404e-07, No Iterations 1
time step continuity errors : sum local = 4.82431e-10, global = 1.43484e-19, cumulative = -1.80354e-18
ExecutionTime = 0.3 s  ClockTime = 1 s

Time = 0.57

Courant Number mean: 0.225642 max: 0.96331
smoothSolver:  Solving for Ux, Initial residual = 1.49576e-06, Final residual = 1.49576e-06, No Iterations 0
smoothSolver:  Solving for Uy, Initial residual = 3.99028e-06, Final residual = 3.99028e-06, No Iterations 0
DICPCG:  Solving for p, Initial residual = 1.09189e-06, Final residual = 7.42506e-07, No Iterations 1
time step continuity errors : sum local = 4.7601e-10, global = -1.3218e-19, cumulative = -1.93572e-18
DICPCG:  Solving for p, Initial residual = 9.44792e-07, Final residual = 9.44792e-07, No Iterations 0
time step continuity errors : sum local = 5.91197e-10, global = -1.73447e-19, cumulative = -2.10917e-18
ExecutionTime = 0.3 s  ClockTime = 1 s

Time = 0.57125

Courant Number mean: 0.225642 max: 0.96331
smoothSolver:  Solving for Ux, Initial residual = 1.48994e-06, Final residual = 1.48994e-06, No Iterations 0
smoothSolver:  Solving for Uy, Initial residual = 3.97449e-06, Final residual = 3.97449e-06, No Iterations 0
DICPCG:  Solving for p, Initial residual = 1.0927e-06, Final residual = 7.66395e-07, No Iterations 1
time step continuity errors : sum local = 4.89778e-10, global = -6.85655e-22, cumulative = -2.10986e-18
DICPCG:  Solving for p, Initial residual = 1.08259e-06, Final residual = 7.73678e-07, No Iterations 1
time step continuity errors : sum local = 4.94092e-10, global = -2.02971e-19, cumulative = -2.31283e-18
ExecutionTime = 0.3 s  ClockTime = 1 s

Time = 0.5725

Courant Number mean: 0.225642 max: 0.96331
smoothSolver:  Solving for Ux, Initial residual = 1.48362e-06, Final residual = 1.48362e-06, No Iterations 0
smoothSolver:  Solving for Uy, Initial residual = 3.95917e-06, Final residual = 3.95917e-06, No Iterations 0
DICPCG:  Solving for p, Initial residual = 9.84028e-07, Final residual = 9.84028e-07, No Iterations 0
time step continuity errors : sum local = 6.13871e-10, global = 2.34418e-19, cumulative = -2.07841e-18
DICPCG:  Solving for p, Initial residual = 1.1069e-06, Final residual = 7.89329e-07, No Iterations 1
time step continuity errors : sum local = 5.03186e-10, global = -1.86275e-19, cumulative = -2.26468e-18
ExecutionTime = 0.31 s  ClockTime = 1 s

Time = 0.57375

Courant Number mean: 0.225643 max: 0.96331
smoothSolver:  Solving for Ux, Initial residual = 1.47816e-06, Final residual = 1.47816e-06, No Iterations 0
smoothSolver:  Solving for Uy, Initial residual = 3.9462e-06, Final residual = 3.9462e-06, No Iterations 0
DICPCG:  Solving for p, Initial residual = 1.14948e-06, Final residual = 7.77117e-07, No Iterations 1
time step continuity errors : sum local = 4.96414e-10, global = 1.90277e-19, cumulative = -2.0744e-18
DICPCG:  Solving for p, Initial residual = 9.95084e-07, Final residual = 9.95084e-07, No Iterations 0
time step continuity errors : sum local = 6.20529e-10, global = 1.07296e-19, cumulative = -1.96711e-18
ExecutionTime = 0.31 s  ClockTime = 1 s

Time = 0.575

Courant Number mean: 0.225643 max: 0.96331
smoothSolver:  Solving for Ux, Initial residual = 1.47223e-06, Final residual = 1.47223e-06, No Iterations 0
smoothSolver:  Solving for Uy, Initial residual = 3.93147e-06, Final residual = 3.93147e-06, No Iterations 0
DICPCG:  Solving for p, Initial residual = 1.15259e-06, Final residual = 8.04248e-07, No Iterations 1
time step continuity errors : sum local = 5.12057e-10, global = 8.85277e-21, cumulative = -1.95826e-18
DICPCG:  Solving for p, Initial residual = 1.14733e-06, Final residual = 8.10843e-07, No Iterations 1
time step continuity errors : sum local = 5.16008e-10, global = -9.82518e-20, cumulative = -2.05651e-18
ExecutionTime = 0.33 s  ClockTime = 1 s

Time = 0.57625

Courant Number mean: 0.225643 max: 0.96331
smoothSolver:  Solving for Ux, Initial residual = 1.46557e-06, Final residual = 1.46557e-06, No Iterations 0
smoothSolver:  Solving for Uy, Initial residual = 3.91773e-06, Final residual = 3.91773e-06, No Iterations 0
DICPCG:  Solving for p, Initial residual = 1.03976e-06, Final residual = 8.67059e-07, No Iterations 1
time step continuity errors : sum local = 5.48205e-10, global = -1.51045e-19, cumulative = -2.20755e-18
DICPCG:  Solving for p, Initial residual = 1.14859e-06, Final residual = 7.98652e-07, No Iterations 1
time step continuity errors : sum local = 5.09468e-10, global = -2.4774e-19, cumulative = -2.45529e-18
ExecutionTime = 0.33 s  ClockTime = 1 s

Time = 0.5775

Courant Number mean: 0.225643 max: 0.96331
smoothSolver:  Solving for Ux, Initial residual = 1.45875e-06, Final residual = 1.45875e-06, No Iterations 0
smoothSolver:  Solving for Uy, Initial residual = 3.90442e-06, Final residual = 3.90442e-06, No Iterations 0
DICPCG:  Solving for p, Initial residual = 1.06102e-06, Final residual = 8.31642e-07, No Iterations 1
time step continuity errors : sum local = 5.28459e-10, global = -2.48026e-19, cumulative = -2.70332e-18
DICPCG:  Solving for p, Initial residual = 1.08746e-06, Final residual = 7.99858e-07, No Iterations 1
time step continuity errors : sum local = 5.10588e-10, global = -1.23261e-19, cumulative = -2.82658e-18
ExecutionTime = 0.34 s  ClockTime = 1 s

Time = 0.57875

Courant Number mean: 0.225643 max: 0.96331
smoothSolver:  Solving for Ux, Initial residual = 1.45192e-06, Final residual = 1.45192e-06, No Iterations 0
smoothSolver:  Solving for Uy, Initial residual = 3.89142e-06, Final residual = 3.89142e-06, No Iterations 0
DICPCG:  Solving for p, Initial residual = 1.05858e-06, Final residual = 7.95783e-07, No Iterations 1
time step continuity errors : sum local = 5.08487e-10, global = -2.69628e-19, cumulative = -3.09621e-18
DICPCG:  Solving for p, Initial residual = 1.043e-06, Final residual = 7.80025e-07, No Iterations 1
time step continuity errors : sum local = 4.9975e-10, global = 2.24042e-19, cumulative = -2.87217e-18
ExecutionTime = 0.34 s  ClockTime = 1 s

Time = 0.58

Courant Number mean: 0.225643 max: 0.96331
smoothSolver:  Solving for Ux, Initial residual = 1.44515e-06, Final residual = 1.44515e-06, No Iterations 0
smoothSolver:  Solving for Uy, Initial residual = 3.87877e-06, Final residual = 3.87877e-06, No Iterations 0
DICPCG:  Solving for p, Initial residual = 1.02524e-06, Final residual = 7.63245e-07, No Iterations 1
time step continuity errors : sum local = 4.90426e-10, global = -7.89104e-20, cumulative = -2.95108e-18
DICPCG:  Solving for p, Initial residual = 1.00072e-06, Final residual = 7.45893e-07, No Iterations 1
time step continuity errors : sum local = 4.80786e-10, global = -4.12046e-20, cumulative = -2.99228e-18
ExecutionTime = 0.34 s  ClockTime = 1 s

Time = 0.58125

Courant Number mean: 0.225643 max: 0.96331
smoothSolver:  Solving for Ux, Initial residual = 1.43848e-06, Final residual = 1.43848e-06, No Iterations 0
smoothSolver:  Solving for Uy, Initial residual = 3.86641e-06, Final residual = 3.86641e-06, No Iterations 0
DICPCG:  Solving for p, Initial residual = 9.76779e-07, Final residual = 9.76779e-07, No Iterations 0
time step continuity errors : sum local = 6.1228e-10, global = -1.28097e-19, cumulative = -3.12038e-18
DICPCG:  Solving for p, Initial residual = 1.1077e-06, Final residual = 6.72727e-07, No Iterations 1
time step continuity errors : sum local = 4.39394e-10, global = 9.43949e-20, cumulative = -3.02598e-18
ExecutionTime = 0.34 s  ClockTime = 1 s

Time = 0.5825

Courant Number mean: 0.225643 max: 0.96331
smoothSolver:  Solving for Ux, Initial residual = 1.43313e-06, Final residual = 1.43313e-06, No Iterations 0
smoothSolver:  Solving for Uy, Initial residual = 3.85449e-06, Final residual = 3.85449e-06, No Iterations 0
DICPCG:  Solving for p, Initial residual = 1.00462e-06, Final residual = 6.92883e-07, No Iterations 1
time step continuity errors : sum local = 4.51104e-10, global = 7.59962e-20, cumulative = -2.94999e-18
DICPCG:  Solving for p, Initial residual = 8.74688e-07, Final residual = 8.74688e-07, No Iterations 0
time step continuity errors : sum local = 5.54638e-10, global = -3.41857e-20, cumulative = -2.98417e-18
ExecutionTime = 0.35 s  ClockTime = 1 s

Time = 0.58375

Courant Number mean: 0.225643 max: 0.96331
smoothSolver:  Solving for Ux, Initial residual = 1.42723e-06, Final residual = 1.42723e-06, No Iterations 0
smoothSolver:  Solving for Uy, Initial residual = 3.841e-06, Final residual = 3.841e-06, No Iterations 0
DICPCG:  Solving for p, Initial residual = 1.0059e-06, Final residual = 6.7051e-07, No Iterations 1
time step continuity errors : sum local = 4.38606e-10, global = -2.1276e-19, cumulative = -3.19693e-18
DICPCG:  Solving for p, Initial residual = 9.70917e-07, Final residual = 9.70917e-07, No Iterations 0
time step continuity errors : sum local = 6.09701e-10, global = 2.30324e-19, cumulative = -2.96661e-18
ExecutionTime = 0.36 s  ClockTime = 1 s

Time = 0.585

Courant Number mean: 0.225643 max: 0.96331
smoothSolver:  Solving for Ux, Initial residual = 1.42174e-06, Final residual = 1.42174e-06, No Iterations 0
smoothSolver:  Solving for Uy, Initial residual = 3.82861e-06, Final residual = 3.82861e-06, No Iterations 0
DICPCG:  Solving for p, Initial residual = 1.18535e-06, Final residual = 6.15139e-07, No Iterations 1
time step continuity errors : sum local = 4.07307e-10, global = 2.24333e-19, cumulative = -2.74228e-18
DICPCG:  Solving for p, Initial residual = 9.17469e-07, Final residual = 9.17469e-07, No Iterations 0
time step continuity errors : sum local = 5.79464e-10, global = -2.65556e-19, cumulative = -3.00783e-18
ExecutionTime = 0.36 s  ClockTime = 1 s

Time = 0.58625

Courant Number mean: 0.225643 max: 0.96331
smoothSolver:  Solving for Ux, Initial residual = 1.41623e-06, Final residual = 1.41623e-06, No Iterations 0
smoothSolver:  Solving for Uy, Initial residual = 3.81612e-06, Final residual = 3.81612e-06, No Iterations 0
DICPCG:  Solving for p, Initial residual = 1.14142e-06, Final residual = 6.40814e-07, No Iterations 1
time step continuity errors : sum local = 4.2213e-10, global = -3.14858e-19, cumulative = -3.32269e-18
DICPCG:  Solving for p, Initial residual = 9.48476e-07, Final residual = 9.48476e-07, No Iterations 0
time step continuity errors : sum local = 5.97333e-10, global = -8.35292e-20, cumulative = -3.40622e-18
ExecutionTime = 0.37 s  ClockTime = 1 s

Time = 0.5875

Courant Number mean: 0.225643 max: 0.96331
smoothSolver:  Solving for Ux, Initial residual = 1.41051e-06, Final residual = 1.41051e-06, No Iterations 0
smoothSolver:  Solving for Uy, Initial residual = 3.80293e-06, Final residual = 3.80293e-06, No Iterations 0
DICPCG:  Solving for p, Initial residual = 1.17438e-06, Final residual = 6.61362e-07, No Iterations 1
time step continuity errors : sum local = 4.34022e-10, global = 4.31478e-20, cumulative = -3.36307e-18
DICPCG:  Solving for p, Initial residual = 9.93419e-07, Final residual = 9.93419e-07, No Iterations 0
time step continuity errors : sum local = 6.23111e-10, global = -1.28452e-19, cumulative = -3.49152e-18
ExecutionTime = 0.37 s  ClockTime = 1 s

Time = 0.58875

Courant Number mean: 0.225643 max: 0.96331
smoothSolver:  Solving for Ux, Initial residual = 1.40472e-06, Final residual = 1.40472e-06, No Iterations 0
smoothSolver:  Solving for Uy, Initial residual = 3.7899e-06, Final residual = 3.7899e-06, No Iterations 0
DICPCG:  Solving for p, Initial residual = 1.23741e-06, Final residual = 6.83821e-07, No Iterations 1
time step continuity errors : sum local = 4.46986e-10, global = -5.62224e-23, cumulative = -3.49158e-18
DICPCG:  Solving for p, Initial residual = 1.04386e-06, Final residual = 7.61832e-07, No Iterations 1
time step continuity errors : sum local = 4.91565e-10, global = 2.9334e-19, cumulative = -3.19824e-18
ExecutionTime = 0.37 s  ClockTime = 1 s

Time = 0.59

Courant Number mean: 0.225644 max: 0.96331
smoothSolver:  Solving for Ux, Initial residual = 1.39715e-06, Final residual = 1.39715e-06, No Iterations 0
smoothSolver:  Solving for Uy, Initial residual = 3.77503e-06, Final residual = 3.77503e-06, No Iterations 0
DICPCG:  Solving for p, Initial residual = 1.00227e-06, Final residual = 7.65439e-07, No Iterations 1
time step continuity errors : sum local = 4.93766e-10, global = 3.45998e-19, cumulative = -2.85224e-18
DICPCG:  Solving for p, Initial residual = 1.0694e-06, Final residual = 7.02768e-07, No Iterations 1
time step continuity errors : sum local = 4.58227e-10, global = -3.1165e-19, cumulative = -3.16389e-18
ExecutionTime = 0.37 s  ClockTime = 1 s

Time = 0.59125

Courant Number mean: 0.225644 max: 0.96331
smoothSolver:  Solving for Ux, Initial residual = 1.3898e-06, Final residual = 1.3898e-06, No Iterations 0
smoothSolver:  Solving for Uy, Initial residual = 3.76078e-06, Final residual = 3.76078e-06, No Iterations 0
DICPCG:  Solving for p, Initial residual = 9.66621e-07, Final residual = 9.66621e-07, No Iterations 0
time step continuity errors : sum local = 6.08477e-10, global = 2.05567e-19, cumulative = -2.95832e-18
DICPCG:  Solving for p, Initial residual = 1.12152e-06, Final residual = 6.64942e-07, No Iterations 1
time step continuity errors : sum local = 4.36828e-10, global = -5.44526e-20, cumulative = -3.01278e-18
ExecutionTime = 0.38 s  ClockTime = 1 s

Time = 0.5925

Courant Number mean: 0.225644 max: 0.96331
smoothSolver:  Solving for Ux, Initial residual = 1.38428e-06, Final residual = 1.38428e-06, No Iterations 0
smoothSolver:  Solving for Uy, Initial residual = 3.7481e-06, Final residual = 3.7481e-06, No Iterations 0
DICPCG:  Solving for p, Initial residual = 1.04829e-06, Final residual = 6.71349e-07, No Iterations 1
time step continuity errors : sum local = 4.40588e-10, global = 2.23863e-19, cumulative = -2.78891e-18
DICPCG:  Solving for p, Initial residual = 8.85144e-07, Final residual = 8.85144e-07, No Iterations 0
time step continuity errors : sum local = 5.62327e-10, global = -2.17706e-19, cumulative = -3.00662e-18
ExecutionTime = 0.38 s  ClockTime = 1 s

Time = 0.59375

Courant Number mean: 0.225644 max: 0.96331
smoothSolver:  Solving for Ux, Initial residual = 1.37841e-06, Final residual = 1.37841e-06, No Iterations 0
smoothSolver:  Solving for Uy, Initial residual = 3.73419e-06, Final residual = 3.73419e-06, No Iterations 0
DICPCG:  Solving for p, Initial residual = 1.04115e-06, Final residual = 6.51018e-07, No Iterations 1
time step continuity errors : sum local = 4.29105e-10, global = 2.43093e-19, cumulative = -2.76353e-18
DICPCG:  Solving for p, Initial residual = 9.93762e-07, Final residual = 9.93762e-07, No Iterations 0
time step continuity errors : sum local = 6.24283e-10, global = 1.61087e-19, cumulative = -2.60244e-18
ExecutionTime = 0.38 s  ClockTime = 1 s

Time = 0.595

Courant Number mean: 0.225644 max: 0.96331
smoothSolver:  Solving for Ux, Initial residual = 1.37293e-06, Final residual = 1.37293e-06, No Iterations 0
smoothSolver:  Solving for Uy, Initial residual = 3.72116e-06, Final residual = 3.72116e-06, No Iterations 0
DICPCG:  Solving for p, Initial residual = 1.24023e-06, Final residual = 5.88645e-07, No Iterations 1
time step continuity errors : sum local = 3.93666e-10, global = -7.43096e-20, cumulative = -2.67675e-18
DICPCG:  Solving for p, Initial residual = 9.29292e-07, Final residual = 9.29292e-07, No Iterations 0
time step continuity errors : sum local = 5.87632e-10, global = -1.3375e-19, cumulative = -2.8105e-18
ExecutionTime = 0.39 s  ClockTime = 1 s

Time = 0.59625

Courant Number mean: 0.225644 max: 0.96331
smoothSolver:  Solving for Ux, Initial residual = 1.36754e-06, Final residual = 1.36754e-06, No Iterations 0
smoothSolver:  Solving for Uy, Initial residual = 3.70818e-06, Final residual = 3.70818e-06, No Iterations 0
DICPCG:  Solving for p, Initial residual = 1.18247e-06, Final residual = 6.10001e-07, No Iterations 1
time step continuity errors : sum local = 4.05878e-10, global = -1.69313e-19, cumulative = -2.97981e-18
DICPCG:  Solving for p, Initial residual = 9.48031e-07, Final residual = 9.48031e-07, No Iterations 0
time step continuity errors : sum local = 5.98359e-10, global = 1.99219e-19, cumulative = -2.78059e-18
ExecutionTime = 0.39 s  ClockTime = 1 s

Time = 0.5975

Courant Number mean: 0.225644 max: 0.96331
smoothSolver:  Solving for Ux, Initial residual = 1.36204e-06, Final residual = 1.36204e-06, No Iterations 0
smoothSolver:  Solving for Uy, Initial residual = 3.69459e-06, Final residual = 3.69459e-06, No Iterations 0
DICPCG:  Solving for p, Initial residual = 1.19655e-06, Final residual = 6.23242e-07, No Iterations 1
time step continuity errors : sum local = 4.13455e-10, global = -1.32397e-19, cumulative = -2.91299e-18
DICPCG:  Solving for p, Initial residual = 9.80332e-07, Final residual = 9.80332e-07, No Iterations 0
time step continuity errors : sum local = 6.16785e-10, global = 7.84708e-20, cumulative = -2.83452e-18
ExecutionTime = 0.39 s  ClockTime = 1 s

Time = 0.59875

Courant Number mean: 0.225644 max: 0.96331
smoothSolver:  Solving for Ux, Initial residual = 1.35654e-06, Final residual = 1.35654e-06, No Iterations 0
smoothSolver:  Solving for Uy, Initial residual = 3.68112e-06, Final residual = 3.68112e-06, No Iterations 0
DICPCG:  Solving for p, Initial residual = 1.24052e-06, Final residual = 6.36881e-07, No Iterations 1
time step continuity errors : sum local = 4.21245e-10, global = -3.36341e-19, cumulative = -3.17086e-18
DICPCG:  Solving for p, Initial residual = 1.01194e-06, Final residual = 7.12937e-07, No Iterations 1
time step continuity errors : sum local = 4.64566e-10, global = -5.04118e-20, cumulative = -3.22127e-18
ExecutionTime = 0.4 s  ClockTime = 1 s

Time = 0.6

Courant Number mean: 0.225644 max: 0.96331
smoothSolver:  Solving for Ux, Initial residual = 1.34962e-06, Final residual = 1.34962e-06, No Iterations 0
smoothSolver:  Solving for Uy, Initial residual = 3.66503e-06, Final residual = 3.66503e-06, No Iterations 0
DICPCG:  Solving for p, Initial residual = 9.52703e-07, Final residual = 9.52703e-07, No Iterations 0
time step continuity errors : sum local = 6.01089e-10, global = 6.78498e-21, cumulative = -3.21449e-18
DICPCG:  Solving for p, Initial residual = 1.0931e-06, Final residual = 6.72258e-07, No Iterations 1
time step continuity errors : sum local = 4.41409e-10, global = -2.39406e-19, cumulative = -3.45389e-18
ExecutionTime = 0.41 s  ClockTime = 1 s

Time = 0.60125

Courant Number mean: 0.225644 max: 0.96331
smoothSolver:  Solving for Ux, Initial residual = 1.3444e-06, Final residual = 1.3444e-06, No Iterations 0
smoothSolver:  Solving for Uy, Initial residual = 3.65181e-06, Final residual = 3.65181e-06, No Iterations 0
DICPCG:  Solving for p, Initial residual = 1.0977e-06, Final residual = 6.51103e-07, No Iterations 1
time step continuity errors : sum local = 4.29362e-10, global = -9.59874e-20, cumulative = -3.54988e-18
DICPCG:  Solving for p, Initial residual = 8.85374e-07, Final residual = 8.85374e-07, No Iterations 0
time step continuity errors : sum local = 5.62756e-10, global = -1.70125e-19, cumulative = -3.72001e-18
ExecutionTime = 0.42 s  ClockTime = 1 s

Time = 0.6025

Courant Number mean: 0.225644 max: 0.96331
smoothSolver:  Solving for Ux, Initial residual = 1.33892e-06, Final residual = 1.33892e-06, No Iterations 0
smoothSolver:  Solving for Uy, Initial residual = 3.63751e-06, Final residual = 3.63751e-06, No Iterations 0
DICPCG:  Solving for p, Initial residual = 1.05601e-06, Final residual = 6.50327e-07, No Iterations 1
time step continuity errors : sum local = 4.28913e-10, global = -2.24534e-19, cumulative = -3.94454e-18
DICPCG:  Solving for p, Initial residual = 1.02373e-06, Final residual = 6.36048e-07, No Iterations 1
time step continuity errors : sum local = 4.20768e-10, global = 1.043e-19, cumulative = -3.84024e-18
ExecutionTime = 0.42 s  ClockTime = 1 s

Time = 0.60375

Courant Number mean: 0.225644 max: 0.96331
smoothSolver:  Solving for Ux, Initial residual = 1.33278e-06, Final residual = 1.33278e-06, No Iterations 0
smoothSolver:  Solving for Uy, Initial residual = 3.62198e-06, Final residual = 3.62198e-06, No Iterations 0
DICPCG:  Solving for p, Initial residual = 8.65172e-07, Final residual = 8.65172e-07, No Iterations 0
time step continuity errors : sum local = 5.51228e-10, global = 2.64622e-20, cumulative = -3.81378e-18
DICPCG:  Solving for p, Initial residual = 9.99904e-07, Final residual = 9.99904e-07, No Iterations 0
time step continuity errors : sum local = 6.27941e-10, global = 1.02579e-19, cumulative = -3.7112e-18
ExecutionTime = 0.42 s  ClockTime = 1 s

Time = 0.605

Courant Number mean: 0.225644 max: 0.96331
smoothSolver:  Solving for Ux, Initial residual = 1.32862e-06, Final residual = 1.32862e-06, No Iterations 0
smoothSolver:  Solving for Uy, Initial residual = 3.61026e-06, Final residual = 3.61026e-06, No Iterations 0
DICPCG:  Solving for p, Initial residual = 1.0919e-06, Final residual = 6.09833e-07, No Iterations 1
time step continuity errors : sum local = 4.05818e-10, global = -1.02031e-19, cumulative = -3.81323e-18
DICPCG:  Solving for p, Initial residual = 1.03512e-06, Final residual = 6.16298e-07, No Iterations 1
time step continuity errors : sum local = 4.09474e-10, global = -1.93903e-19, cumulative = -4.00714e-18
ExecutionTime = 0.43 s  ClockTime = 1 s

Time = 0.60625

Courant Number mean: 0.225644 max: 0.96331
smoothSolver:  Solving for Ux, Initial residual = 1.3227e-06, Final residual = 1.3227e-06, No Iterations 0
smoothSolver:  Solving for Uy, Initial residual = 3.59448e-06, Final residual = 3.59448e-06, No Iterations 0
DICPCG:  Solving for p, Initial residual = 8.25592e-07, Final residual = 8.25592e-07, No Iterations 0
time step continuity errors : sum local = 5.28637e-10, global = 2.53074e-19, cumulative = -3.75406e-18
DICPCG:  Solving for p, Initial residual = 9.49628e-07, Final residual = 9.49628e-07, No Iterations 0
time step continuity errors : sum local = 5.99256e-10, global = -1.4746e-19, cumulative = -3.90152e-18
ExecutionTime = 0.43 s  ClockTime = 1 s

Time = 0.6075

Courant Number mean: 0.225644 max: 0.96331
smoothSolver:  Solving for Ux, Initial residual = 1.31861e-06, Final residual = 1.31861e-06, No Iterations 0
smoothSolver:  Solving for Uy, Initial residual = 3.58297e-06, Final residual = 3.58297e-06, No Iterations 0
DICPCG:  Solving for p, Initial residual = 1.03531e-06, Final residual = 6.48295e-07, No Iterations 1
time step continuity errors : sum local = 4.27651e-10, global = 7.86742e-20, cumulative = -3.82285e-18
DICPCG:  Solving for p, Initial residual = 1.08244e-06, Final residual = 6.22163e-07, No Iterations 1
time step continuity errors : sum local = 4.12737e-10, global = 5.41363e-19, cumulative = -3.28148e-18
ExecutionTime = 0.43 s  ClockTime = 1 s

Time = 0.60875

Courant Number mean: 0.225645 max: 0.96331
smoothSolver:  Solving for Ux, Initial residual = 1.31288e-06, Final residual = 1.31288e-06, No Iterations 0
smoothSolver:  Solving for Uy, Initial residual = 3.56695e-06, Final residual = 3.56695e-06, No Iterations 0
DICPCG:  Solving for p, Initial residual = 8.52401e-07, Final residual = 8.52401e-07, No Iterations 0
time step continuity errors : sum local = 5.43818e-10, global = -1.32829e-20, cumulative = -3.29477e-18
DICPCG:  Solving for p, Initial residual = 9.8915e-07, Final residual = 9.8915e-07, No Iterations 0
time step continuity errors : sum local = 6.21673e-10, global = 3.06386e-20, cumulative = -3.26413e-18
ExecutionTime = 0.43 s  ClockTime = 1 s

Time = 0.61

Courant Number mean: 0.225645 max: 0.96331
smoothSolver:  Solving for Ux, Initial residual = 1.30881e-06, Final residual = 1.30881e-06, No Iterations 0
smoothSolver:  Solving for Uy, Initial residual = 3.55551e-06, Final residual = 3.55551e-06, No Iterations 0
DICPCG:  Solving for p, Initial residual = 1.08334e-06, Final residual = 6.7016e-07, No Iterations 1
time step continuity errors : sum local = 4.40006e-10, global = -5.16334e-20, cumulative = -3.31576e-18
DICPCG:  Solving for p, Initial residual = 1.12387e-06, Final residual = 6.49716e-07, No Iterations 1
time step continuity errors : sum local = 4.2832e-10, global = 2.21994e-19, cumulative = -3.09377e-18
ExecutionTime = 0.44 s  ClockTime = 1 s

Time = 0.61125

Courant Number mean: 0.225645 max: 0.96331
smoothSolver:  Solving for Ux, Initial residual = 1.30318e-06, Final residual = 1.30318e-06, No Iterations 0
smoothSolver:  Solving for Uy, Initial residual = 3.53916e-06, Final residual = 3.53916e-06, No Iterations 0
DICPCG:  Solving for p, Initial residual = 8.91259e-07, Final residual = 8.91259e-07, No Iterations 0
time step continuity errors : sum local = 5.65831e-10, global = -1.1951e-19, cumulative = -3.21328e-18
DICPCG:  Solving for p, Initial residual = 1.03443e-06, Final residual = 6.99444e-07, No Iterations 1
time step continuity errors : sum local = 4.56564e-10, global = 9.30681e-20, cumulative = -3.12021e-18
ExecutionTime = 0.44 s  ClockTime = 1 s

Time = 0.6125

Courant Number mean: 0.225645 max: 0.96331
smoothSolver:  Solving for Ux, Initial residual = 1.29843e-06, Final residual = 1.29843e-06, No Iterations 0
smoothSolver:  Solving for Uy, Initial residual = 3.52548e-06, Final residual = 3.52548e-06, No Iterations 0
DICPCG:  Solving for p, Initial residual = 1.14284e-06, Final residual = 6.41547e-07, No Iterations 1
time step continuity errors : sum local = 4.23543e-10, global = 1.3695e-19, cumulative = -2.98326e-18
DICPCG:  Solving for p, Initial residual = 9.04054e-07, Final residual = 9.04054e-07, No Iterations 0
time step continuity errors : sum local = 5.7299e-10, global = -8.07147e-21, cumulative = -2.99133e-18
ExecutionTime = 0.44 s  ClockTime = 1 s

Time = 0.61375

Courant Number mean: 0.225645 max: 0.96331
smoothSolver:  Solving for Ux, Initial residual = 1.29369e-06, Final residual = 1.29369e-06, No Iterations 0
smoothSolver:  Solving for Uy, Initial residual = 3.51167e-06, Final residual = 3.51167e-06, No Iterations 0
DICPCG:  Solving for p, Initial residual = 1.0947e-06, Final residual = 6.55118e-07, No Iterations 1
time step continuity errors : sum local = 4.31191e-10, global = 9.16684e-21, cumulative = -2.98216e-18
DICPCG:  Solving for p, Initial residual = 1.05257e-06, Final residual = 6.52344e-07, No Iterations 1
time step continuity errors : sum local = 4.29547e-10, global = 8.72398e-20, cumulative = -2.89493e-18
ExecutionTime = 0.45 s  ClockTime = 1 s

Time = 0.615

Courant Number mean: 0.225645 max: 0.96331
smoothSolver:  Solving for Ux, Initial residual = 1.2884e-06, Final residual = 1.2884e-06, No Iterations 0
smoothSolver:  Solving for Uy, Initial residual = 3.49572e-06, Final residual = 3.49572e-06, No Iterations 0
DICPCG:  Solving for p, Initial residual = 9.01601e-07, Final residual = 9.01601e-07, No Iterations 0
time step continuity errors : sum local = 5.71443e-10, global = -3.82468e-20, cumulative = -2.93317e-18
DICPCG:  Solving for p, Initial residual = 1.04768e-06, Final residual = 6.36415e-07, No Iterations 1
time step continuity errors : sum local = 4.20389e-10, global = -3.10138e-20, cumulative = -2.96419e-18
ExecutionTime = 0.45 s  ClockTime = 1 s

Time = 0.61625

Courant Number mean: 0.225645 max: 0.96331
smoothSolver:  Solving for Ux, Initial residual = 1.28385e-06, Final residual = 1.28385e-06, No Iterations 0
smoothSolver:  Solving for Uy, Initial residual = 3.48245e-06, Final residual = 3.48245e-06, No Iterations 0
DICPCG:  Solving for p, Initial residual = 1.05902e-06, Final residual = 6.09667e-07, No Iterations 1
time step continuity errors : sum local = 4.05093e-10, global = -4.22358e-20, cumulative = -3.00642e-18
DICPCG:  Solving for p, Initial residual = 8.47579e-07, Final residual = 8.47579e-07, No Iterations 0
time step continuity errors : sum local = 5.40532e-10, global = 1.52279e-19, cumulative = -2.85414e-18
ExecutionTime = 0.45 s  ClockTime = 1 s

Time = 0.6175

Courant Number mean: 0.225645 max: 0.96331
smoothSolver:  Solving for Ux, Initial residual = 1.27921e-06, Final residual = 1.27921e-06, No Iterations 0
smoothSolver:  Solving for Uy, Initial residual = 3.46886e-06, Final residual = 3.46886e-06, No Iterations 0
DICPCG:  Solving for p, Initial residual = 1.02015e-06, Final residual = 6.00145e-07, No Iterations 1
time step continuity errors : sum local = 3.99582e-10, global = -4.06249e-19, cumulative = -3.26039e-18
DICPCG:  Solving for p, Initial residual = 9.70399e-07, Final residual = 9.70399e-07, No Iterations 0
time step continuity errors : sum local = 6.10393e-10, global = 2.47422e-19, cumulative = -3.01297e-18
ExecutionTime = 0.46 s  ClockTime = 1 s

Time = 0.61875

Courant Number mean: 0.225645 max: 0.96331
smoothSolver:  Solving for Ux, Initial residual = 1.27464e-06, Final residual = 1.27464e-06, No Iterations 0
smoothSolver:  Solving for Uy, Initial residual = 3.45544e-06, Final residual = 3.45544e-06, No Iterations 0
DICPCG:  Solving for p, Initial residual = 1.23233e-06, Final residual = 5.2937e-07, No Iterations 1
time step continuity errors : sum local = 3.59212e-10, global = 7.25757e-20, cumulative = -2.94039e-18
DICPCG:  Solving for p, Initial residual = 8.96649e-07, Final residual = 8.96649e-07, No Iterations 0
time step continuity errors : sum local = 5.68322e-10, global = -6.30782e-20, cumulative = -3.00347e-18
ExecutionTime = 0.46 s  ClockTime = 1 s

Time = 0.62

Courant Number mean: 0.225645 max: 0.96331
smoothSolver:  Solving for Ux, Initial residual = 1.27014e-06, Final residual = 1.27014e-06, No Iterations 0
smoothSolver:  Solving for Uy, Initial residual = 3.44253e-06, Final residual = 3.44253e-06, No Iterations 0
DICPCG:  Solving for p, Initial residual = 1.16612e-06, Final residual = 5.45503e-07, No Iterations 1
time step continuity errors : sum local = 3.68325e-10, global = 2.24766e-19, cumulative = -2.77871e-18
DICPCG:  Solving for p, Initial residual = 9.01175e-07, Final residual = 9.01175e-07, No Iterations 0
time step continuity errors : sum local = 5.70827e-10, global = 8.63652e-20, cumulative = -2.69234e-18
ExecutionTime = 0.46 s  ClockTime = 1 s

Time = 0.62125

Courant Number mean: 0.225645 max: 0.96331
smoothSolver:  Solving for Ux, Initial residual = 1.2655e-06, Final residual = 1.2655e-06, No Iterations 0
smoothSolver:  Solving for Uy, Initial residual = 3.429e-06, Final residual = 3.429e-06, No Iterations 0
DICPCG:  Solving for p, Initial residual = 1.15952e-06, Final residual = 5.57375e-07, No Iterations 1
time step continuity errors : sum local = 3.75013e-10, global = -2.16869e-19, cumulative = -2.90921e-18
DICPCG:  Solving for p, Initial residual = 9.25046e-07, Final residual = 9.25046e-07, No Iterations 0
time step continuity errors : sum local = 5.84351e-10, global = 9.75679e-20, cumulative = -2.81164e-18
ExecutionTime = 0.47 s  ClockTime = 1 s

Time = 0.6225

Courant Number mean: 0.225645 max: 0.96331
smoothSolver:  Solving for Ux, Initial residual = 1.26082e-06, Final residual = 1.26082e-06, No Iterations 0
smoothSolver:  Solving for Uy, Initial residual = 3.4157e-06, Final residual = 3.4157e-06, No Iterations 0
DICPCG:  Solving for p, Initial residual = 1.18952e-06, Final residual = 5.67501e-07, No Iterations 1
time step continuity errors : sum local = 3.80712e-10, global = -3.36539e-19, cumulative = -3.14818e-18
DICPCG:  Solving for p, Initial residual = 9.46199e-07, Final residual = 9.46199e-07, No Iterations 0
time step continuity errors : sum local = 5.96327e-10, global = -4.13199e-19, cumulative = -3.56138e-18
ExecutionTime = 0.47 s  ClockTime = 1 s

Time = 0.62375

Courant Number mean: 0.225645 max: 0.96331
smoothSolver:  Solving for Ux, Initial residual = 1.25612e-06, Final residual = 1.25612e-06, No Iterations 0
smoothSolver:  Solving for Uy, Initial residual = 3.40211e-06, Final residual = 3.40211e-06, No Iterations 0
DICPCG:  Solving for p, Initial residual = 1.21944e-06, Final residual = 5.82759e-07, No Iterations 1
time step continuity errors : sum local = 3.89337e-10, global = -4.42976e-20, cumulative = -3.60568e-18
DICPCG:  Solving for p, Initial residual = 9.72451e-07, Final residual = 9.72451e-07, No Iterations 0
time step continuity errors : sum local = 6.11216e-10, global = -1.85561e-20, cumulative = -3.62423e-18
ExecutionTime = 0.47 s  ClockTime = 1 s

Time = 0.625

Courant Number mean: 0.225645 max: 0.96331
smoothSolver:  Solving for Ux, Initial residual = 1.25134e-06, Final residual = 1.25134e-06, No Iterations 0
smoothSolver:  Solving for Uy, Initial residual = 3.38869e-06, Final residual = 3.38869e-06, No Iterations 0
DICPCG:  Solving for p, Initial residual = 1.25257e-06, Final residual = 6.00617e-07, No Iterations 1
time step continuity errors : sum local = 3.99448e-10, global = 3.21916e-19, cumulative = -3.30232e-18
DICPCG:  Solving for p, Initial residual = 1.00262e-06, Final residual = 6.81614e-07, No Iterations 1
time step continuity errors : sum local = 4.45513e-10, global = -5.51658e-20, cumulative = -3.35748e-18
ExecutionTime = 0.49 s  ClockTime = 1 s

Time = 0.62625

Courant Number mean: 0.225646 max: 0.96331
smoothSolver:  Solving for Ux, Initial residual = 1.24549e-06, Final residual = 1.24549e-06, No Iterations 0
smoothSolver:  Solving for Uy, Initial residual = 3.37195e-06, Final residual = 3.37195e-06, No Iterations 0
DICPCG:  Solving for p, Initial residual = 9.34307e-07, Final residual = 9.34307e-07, No Iterations 0
time step continuity errors : sum local = 5.89376e-10, global = 1.7605e-19, cumulative = -3.18143e-18
DICPCG:  Solving for p, Initial residual = 1.08219e-06, Final residual = 6.37946e-07, No Iterations 1
time step continuity errors : sum local = 4.20591e-10, global = 1.11923e-19, cumulative = -3.06951e-18
ExecutionTime = 0.49 s  ClockTime = 1 s

Time = 0.6275

Courant Number mean: 0.225646 max: 0.96331
smoothSolver:  Solving for Ux, Initial residual = 1.2408e-06, Final residual = 1.2408e-06, No Iterations 0
smoothSolver:  Solving for Uy, Initial residual = 3.35878e-06, Final residual = 3.35878e-06, No Iterations 0
DICPCG:  Solving for p, Initial residual = 1.0858e-06, Final residual = 6.13616e-07, No Iterations 1
time step continuity errors : sum local = 4.06699e-10, global = -1.85909e-19, cumulative = -3.25542e-18
DICPCG:  Solving for p, Initial residual = 8.57121e-07, Final residual = 8.57121e-07, No Iterations 0
time step continuity errors : sum local = 5.45335e-10, global = -2.26325e-19, cumulative = -3.48175e-18
ExecutionTime = 0.5 s  ClockTime = 1 s

Time = 0.62875

Courant Number mean: 0.225646 max: 0.96331
smoothSolver:  Solving for Ux, Initial residual = 1.23602e-06, Final residual = 1.23602e-06, No Iterations 0
smoothSolver:  Solving for Uy, Initial residual = 3.34546e-06, Final residual = 3.34546e-06, No Iterations 0
DICPCG:  Solving for p, Initial residual = 1.03424e-06, Final residual = 6.07939e-07, No Iterations 1
time step continuity errors : sum local = 4.03422e-10, global = 3.92862e-20, cumulative = -3.44246e-18
DICPCG:  Solving for p, Initial residual = 9.91932e-07, Final residual = 9.91932e-07, No Iterations 0
time step continuity errors : sum local = 6.22064e-10, global = -2.01284e-19, cumulative = -3.64374e-18
ExecutionTime = 0.5 s  ClockTime = 1 s

Time = 0.63

Courant Number mean: 0.225646 max: 0.96331
smoothSolver:  Solving for Ux, Initial residual = 1.23131e-06, Final residual = 1.23131e-06, No Iterations 0
smoothSolver:  Solving for Uy, Initial residual = 3.33241e-06, Final residual = 3.33241e-06, No Iterations 0
DICPCG:  Solving for p, Initial residual = 1.26696e-06, Final residual = 5.31041e-07, No Iterations 1
time step continuity errors : sum local = 3.59609e-10, global = -9.29245e-20, cumulative = -3.73667e-18
DICPCG:  Solving for p, Initial residual = 9.11706e-07, Final residual = 9.11706e-07, No Iterations 0
time step continuity errors : sum local = 5.76355e-10, global = 2.88919e-20, cumulative = -3.70778e-18
ExecutionTime = 0.5 s  ClockTime = 1 s

Time = 0.63125

Courant Number mean: 0.225646 max: 0.96331
smoothSolver:  Solving for Ux, Initial residual = 1.22672e-06, Final residual = 1.22672e-06, No Iterations 0
smoothSolver:  Solving for Uy, Initial residual = 3.31999e-06, Final residual = 3.31999e-06, No Iterations 0
DICPCG:  Solving for p, Initial residual = 1.1948e-06, Final residual = 5.4637e-07, No Iterations 1
time step continuity errors : sum local = 3.68317e-10, global = 7.20356e-20, cumulative = -3.63574e-18
DICPCG:  Solving for p, Initial residual = 9.10403e-07, Final residual = 9.10403e-07, No Iterations 0
time step continuity errors : sum local = 5.75594e-10, global = 1.46343e-20, cumulative = -3.62111e-18
ExecutionTime = 0.51 s  ClockTime = 1 s

Time = 0.6325

Courant Number mean: 0.225646 max: 0.96331
smoothSolver:  Solving for Ux, Initial residual = 1.22203e-06, Final residual = 1.22203e-06, No Iterations 0
smoothSolver:  Solving for Uy, Initial residual = 3.30724e-06, Final residual = 3.30724e-06, No Iterations 0
DICPCG:  Solving for p, Initial residual = 1.17942e-06, Final residual = 5.57737e-07, No Iterations 1
time step continuity errors : sum local = 3.74778e-10, global = 5.75375e-21, cumulative = -3.61535e-18
DICPCG:  Solving for p, Initial residual = 9.33131e-07, Final residual = 9.33131e-07, No Iterations 0
time step continuity errors : sum local = 5.88527e-10, global = -1.70245e-19, cumulative = -3.7856e-18
ExecutionTime = 0.51 s  ClockTime = 1 s

Time = 0.63375

Courant Number mean: 0.225646 max: 0.96331
smoothSolver:  Solving for Ux, Initial residual = 1.21732e-06, Final residual = 1.21732e-06, No Iterations 0
smoothSolver:  Solving for Uy, Initial residual = 3.29476e-06, Final residual = 3.29476e-06, No Iterations 0
DICPCG:  Solving for p, Initial residual = 1.20815e-06, Final residual = 5.69295e-07, No Iterations 1
time step continuity errors : sum local = 3.81359e-10, global = -1.86714e-19, cumulative = -3.97231e-18
DICPCG:  Solving for p, Initial residual = 9.53486e-07, Final residual = 9.53486e-07, No Iterations 0
time step continuity errors : sum local = 6.00118e-10, global = 8.88799e-21, cumulative = -3.96342e-18
ExecutionTime = 0.51 s  ClockTime = 1 s

Time = 0.635

Courant Number mean: 0.225646 max: 0.96331
smoothSolver:  Solving for Ux, Initial residual = 1.21259e-06, Final residual = 1.21259e-06, No Iterations 0
smoothSolver:  Solving for Uy, Initial residual = 3.28219e-06, Final residual = 3.28219e-06, No Iterations 0
DICPCG:  Solving for p, Initial residual = 1.23505e-06, Final residual = 5.85797e-07, No Iterations 1
time step continuity errors : sum local = 3.90764e-10, global = 3.51152e-19, cumulative = -3.61227e-18
DICPCG:  Solving for p, Initial residual = 9.80615e-07, Final residual = 9.80615e-07, No Iterations 0
time step continuity errors : sum local = 6.15574e-10, global = 1.66646e-19, cumulative = -3.44563e-18
ExecutionTime = 0.52 s  ClockTime = 1 s

Time = 0.63625

Courant Number mean: 0.225646 max: 0.96331
smoothSolver:  Solving for Ux, Initial residual = 1.2078e-06, Final residual = 1.2078e-06, No Iterations 0
smoothSolver:  Solving for Uy, Initial residual = 3.26982e-06, Final residual = 3.26982e-06, No Iterations 0
DICPCG:  Solving for p, Initial residual = 1.27051e-06, Final residual = 6.07642e-07, No Iterations 1
[...]
DICPCG:  Solving for p, Initial residual = 7.45384e-07, Final residual = 7.45384e-07, No Iterations 0
time step continuity errors : sum local = 4.84823e-10, global = 2.46497e-20, cumulative = -7.80877e-18
ExecutionTime = 7.87 s  ClockTime = 11 s

Time = 2.9675

Courant Number mean: 0.225662 max: 0.963312
smoothSolver:  Solving for Ux, Initial residual = 4.25944e-09, Final residual = 4.25944e-09, No Iterations 0
smoothSolver:  Solving for Uy, Initial residual = 1.16266e-08, Final residual = 1.16266e-08, No Iterations 0
DICPCG:  Solving for p, Initial residual = 9.49531e-07, Final residual = 9.49531e-07, No Iterations 0
time step continuity errors : sum local = 6.01064e-10, global = -1.54552e-19, cumulative = -7.96332e-18
DICPCG:  Solving for p, Initial residual = 1.08434e-06, Final residual = 1.09205e-07, No Iterations 1
time step continuity errors : sum local = 1.22574e-10, global = -6.7207e-20, cumulative = -8.03053e-18
ExecutionTime = 7.87 s  ClockTime = 11 s

Time = 2.96875

Courant Number mean: 0.225662 max: 0.963312
smoothSolver:  Solving for Ux, Initial residual = 1.03703e-08, Final residual = 1.03703e-08, No Iterations 0
smoothSolver:  Solving for Uy, Initial residual = 2.85339e-08, Final residual = 2.85339e-08, No Iterations 0
DICPCG:  Solving for p, Initial residual = 5.57714e-07, Final residual = 5.57714e-07, No Iterations 0
time step continuity errors : sum local = 3.77954e-10, global = -3.20836e-20, cumulative = -8.06261e-18
DICPCG:  Solving for p, Initial residual = 8.94375e-07, Final residual = 8.94375e-07, No Iterations 0
time step continuity errors : sum local = 5.69648e-10, global = -1.45121e-19, cumulative = -8.20773e-18
ExecutionTime = 7.87 s  ClockTime = 11 s

Time = 2.97

Courant Number mean: 0.225662 max: 0.963312
smoothSolver:  Solving for Ux, Initial residual = 5.12961e-09, Final residual = 5.12961e-09, No Iterations 0
smoothSolver:  Solving for Uy, Initial residual = 1.40122e-08, Final residual = 1.40122e-08, No Iterations 0
DICPCG:  Solving for p, Initial residual = 1.1433e-06, Final residual = 1.09437e-07, No Iterations 1
time step continuity errors : sum local = 1.22695e-10, global = -4.90432e-20, cumulative = -8.25677e-18
DICPCG:  Solving for p, Initial residual = 4.94586e-07, Final residual = 4.94586e-07, No Iterations 0
time step continuity errors : sum local = 3.41997e-10, global = -1.85099e-20, cumulative = -8.27528e-18
ExecutionTime = 7.87 s  ClockTime = 11 s

Time = 2.97125

Courant Number mean: 0.225662 max: 0.963312
smoothSolver:  Solving for Ux, Initial residual = 6.79716e-09, Final residual = 6.79716e-09, No Iterations 0
smoothSolver:  Solving for Uy, Initial residual = 1.86392e-08, Final residual = 1.86392e-08, No Iterations 0
DICPCG:  Solving for p, Initial residual = 8.31766e-07, Final residual = 8.31766e-07, No Iterations 0
time step continuity errors : sum local = 5.33985e-10, global = -4.31184e-20, cumulative = -8.3184e-18
DICPCG:  Solving for p, Initial residual = 1.05162e-06, Final residual = 1.09003e-07, No Iterations 1
time step continuity errors : sum local = 1.22436e-10, global = 5.39273e-20, cumulative = -8.26448e-18
ExecutionTime = 7.88 s  ClockTime = 11 s

Time = 2.9725

Courant Number mean: 0.225662 max: 0.963312
smoothSolver:  Solving for Ux, Initial residual = 8.7532e-09, Final residual = 8.7532e-09, No Iterations 0
smoothSolver:  Solving for Uy, Initial residual = 2.40706e-08, Final residual = 2.40706e-08, No Iterations 0
DICPCG:  Solving for p, Initial residual = 4.78184e-07, Final residual = 4.78184e-07, No Iterations 0
time step continuity errors : sum local = 3.32645e-10, global = -8.05438e-20, cumulative = -8.34502e-18
DICPCG:  Solving for p, Initial residual = 7.60114e-07, Final residual = 7.60114e-07, No Iterations 0
time step continuity errors : sum local = 4.93176e-10, global = 4.2521e-20, cumulative = -8.3025e-18
ExecutionTime = 7.88 s  ClockTime = 11 s

Time = 2.97375

Courant Number mean: 0.225662 max: 0.963312
smoothSolver:  Solving for Ux, Initial residual = 4.34416e-09, Final residual = 4.34416e-09, No Iterations 0
smoothSolver:  Solving for Uy, Initial residual = 1.18541e-08, Final residual = 1.18541e-08, No Iterations 0
DICPCG:  Solving for p, Initial residual = 9.68846e-07, Final residual = 9.68846e-07, No Iterations 0
time step continuity errors : sum local = 6.12027e-10, global = 9.39921e-20, cumulative = -8.20851e-18
DICPCG:  Solving for p, Initial residual = 1.10654e-06, Final residual = 1.09193e-07, No Iterations 1
time step continuity errors : sum local = 1.22532e-10, global = 4.80241e-20, cumulative = -8.16048e-18
ExecutionTime = 7.88 s  ClockTime = 11 s

Time = 2.975

Courant Number mean: 0.225662 max: 0.963312
smoothSolver:  Solving for Ux, Initial residual = 1.05829e-08, Final residual = 1.05829e-08, No Iterations 0
smoothSolver:  Solving for Uy, Initial residual = 2.91334e-08, Final residual = 2.91334e-08, No Iterations 0
DICPCG:  Solving for p, Initial residual = 5.68937e-07, Final residual = 5.68937e-07, No Iterations 0
time step continuity errors : sum local = 3.84308e-10, global = 2.52939e-19, cumulative = -7.90754e-18
DICPCG:  Solving for p, Initial residual = 9.12696e-07, Final residual = 9.12696e-07, No Iterations 0
time step continuity errors : sum local = 5.80044e-10, global = -9.08435e-20, cumulative = -7.99839e-18
ExecutionTime = 7.9 s  ClockTime = 11 s

Time = 2.97625

Courant Number mean: 0.225662 max: 0.963312
smoothSolver:  Solving for Ux, Initial residual = 5.22929e-09, Final residual = 5.22929e-09, No Iterations 0
smoothSolver:  Solving for Uy, Initial residual = 1.42948e-08, Final residual = 1.42948e-08, No Iterations 0
DICPCG:  Solving for p, Initial residual = 1.16709e-06, Final residual = 1.09548e-07, No Iterations 1
time step continuity errors : sum local = 1.22722e-10, global = -8.85889e-20, cumulative = -8.08698e-18
DICPCG:  Solving for p, Initial residual = 5.03329e-07, Final residual = 5.03329e-07, No Iterations 0
time step continuity errors : sum local = 3.4694e-10, global = 1.35026e-19, cumulative = -7.95195e-18
ExecutionTime = 7.91 s  ClockTime = 11 s

Time = 2.9775

Courant Number mean: 0.225662 max: 0.963312
smoothSolver:  Solving for Ux, Initial residual = 6.9273e-09, Final residual = 6.9273e-09, No Iterations 0
smoothSolver:  Solving for Uy, Initial residual = 1.90071e-08, Final residual = 1.90071e-08, No Iterations 0
DICPCG:  Solving for p, Initial residual = 8.47515e-07, Final residual = 8.47515e-07, No Iterations 0
time step continuity errors : sum local = 5.42918e-10, global = 6.98475e-20, cumulative = -7.8821e-18
DICPCG:  Solving for p, Initial residual = 1.07177e-06, Final residual = 1.08987e-07, No Iterations 1
time step continuity errors : sum local = 1.22391e-10, global = 8.73094e-20, cumulative = -7.79479e-18
ExecutionTime = 7.91 s  ClockTime = 11 s

Time = 2.97875

Courant Number mean: 0.225662 max: 0.963312
smoothSolver:  Solving for Ux, Initial residual = 8.92002e-09, Final residual = 8.92002e-09, No Iterations 0
smoothSolver:  Solving for Uy, Initial residual = 2.45388e-08, Final residual = 2.45388e-08, No Iterations 0
DICPCG:  Solving for p, Initial residual = 4.86729e-07, Final residual = 4.86729e-07, No Iterations 0
time step continuity errors : sum local = 3.37475e-10, global = 1.09786e-19, cumulative = -7.68501e-18
DICPCG:  Solving for p, Initial residual = 7.74397e-07, Final residual = 7.74397e-07, No Iterations 0
time step continuity errors : sum local = 5.01272e-10, global = -2.35128e-19, cumulative = -7.92014e-18
ExecutionTime = 7.91 s  ClockTime = 11 s

Time = 2.98

Courant Number mean: 0.225662 max: 0.963312
smoothSolver:  Solving for Ux, Initial residual = 4.42178e-09, Final residual = 4.42178e-09, No Iterations 0
smoothSolver:  Solving for Uy, Initial residual = 1.20693e-08, Final residual = 1.20693e-08, No Iterations 0
DICPCG:  Solving for p, Initial residual = 9.87387e-07, Final residual = 9.87387e-07, No Iterations 0
time step continuity errors : sum local = 6.22548e-10, global = 1.74746e-19, cumulative = -7.74539e-18
DICPCG:  Solving for p, Initial residual = 1.12794e-06, Final residual = 1.09278e-07, No Iterations 1
time step continuity errors : sum local = 1.22544e-10, global = -2.11353e-19, cumulative = -7.95674e-18
ExecutionTime = 7.92 s  ClockTime = 11 s

Time = 2.98125

Courant Number mean: 0.225662 max: 0.963312
smoothSolver:  Solving for Ux, Initial residual = 1.07748e-08, Final residual = 1.07748e-08, No Iterations 0
smoothSolver:  Solving for Uy, Initial residual = 2.96792e-08, Final residual = 2.96792e-08, No Iterations 0
DICPCG:  Solving for p, Initial residual = 5.78596e-07, Final residual = 5.78596e-07, No Iterations 0
time step continuity errors : sum local = 3.89773e-10, global = 1.05408e-19, cumulative = -7.85133e-18
DICPCG:  Solving for p, Initial residual = 9.28949e-07, Final residual = 9.28949e-07, No Iterations 0
time step continuity errors : sum local = 5.89263e-10, global = -3.23229e-19, cumulative = -8.17456e-18
ExecutionTime = 7.92 s  ClockTime = 11 s

Time = 2.9825

Courant Number mean: 0.225662 max: 0.963312
smoothSolver:  Solving for Ux, Initial residual = 5.32123e-09, Final residual = 5.32123e-09, No Iterations 0
smoothSolver:  Solving for Uy, Initial residual = 1.45517e-08, Final residual = 1.45517e-08, No Iterations 0
DICPCG:  Solving for p, Initial residual = 1.18805e-06, Final residual = 1.09518e-07, No Iterations 1
time step continuity errors : sum local = 1.2267e-10, global = 4.19497e-20, cumulative = -8.13261e-18
DICPCG:  Solving for p, Initial residual = 5.11718e-07, Final residual = 5.11718e-07, No Iterations 0
time step continuity errors : sum local = 3.5168e-10, global = -1.01111e-19, cumulative = -8.23373e-18
ExecutionTime = 7.92 s  ClockTime = 11 s

Time = 2.98375

Courant Number mean: 0.225662 max: 0.963312
smoothSolver:  Solving for Ux, Initial residual = 7.05259e-09, Final residual = 7.05259e-09, No Iterations 0
smoothSolver:  Solving for Uy, Initial residual = 1.93513e-08, Final residual = 1.93513e-08, No Iterations 0
DICPCG:  Solving for p, Initial residual = 8.62462e-07, Final residual = 8.62462e-07, No Iterations 0
time step continuity errors : sum local = 5.51393e-10, global = 3.13943e-19, cumulative = -7.91978e-18
DICPCG:  Solving for p, Initial residual = 1.09108e-06, Final residual = 1.09045e-07, No Iterations 1
time step continuity errors : sum local = 1.22388e-10, global = -7.29725e-20, cumulative = -7.99276e-18
ExecutionTime = 7.92 s  ClockTime = 11 s

Time = 2.985

Courant Number mean: 0.225662 max: 0.963312
smoothSolver:  Solving for Ux, Initial residual = 9.06813e-09, Final residual = 9.06813e-09, No Iterations 0
smoothSolver:  Solving for Uy, Initial residual = 2.49634e-08, Final residual = 2.49634e-08, No Iterations 0
DICPCG:  Solving for p, Initial residual = 4.94577e-07, Final residual = 4.94577e-07, No Iterations 0
time step continuity errors : sum local = 3.41909e-10, global = -2.37793e-20, cumulative = -8.01653e-18
DICPCG:  Solving for p, Initial residual = 7.8731e-07, Final residual = 7.8731e-07, No Iterations 0
time step continuity errors : sum local = 5.0859e-10, global = 8.58279e-20, cumulative = -7.93071e-18
ExecutionTime = 7.93 s  ClockTime = 11 s

Time = 2.98625

Courant Number mean: 0.225662 max: 0.963312
smoothSolver:  Solving for Ux, Initial residual = 4.49225e-09, Final residual = 4.49225e-09, No Iterations 0
smoothSolver:  Solving for Uy, Initial residual = 1.22666e-08, Final residual = 1.22666e-08, No Iterations 0
DICPCG:  Solving for p, Initial residual = 1.00406e-06, Final residual = 1.08595e-07, No Iterations 1
time step continuity errors : sum local = 1.2212e-10, global = -1.97338e-19, cumulative = -8.12804e-18
DICPCG:  Solving for p, Initial residual = 4.40697e-07, Final residual = 4.40697e-07, No Iterations 0
time step continuity errors : sum local = 3.11217e-10, global = 2.03882e-19, cumulative = -7.92416e-18
ExecutionTime = 7.93 s  ClockTime = 11 s

Time = 2.9875

Courant Number mean: 0.225662 max: 0.963312
smoothSolver:  Solving for Ux, Initial residual = 5.97882e-09, Final residual = 5.97882e-09, No Iterations 0
smoothSolver:  Solving for Uy, Initial residual = 1.63874e-08, Final residual = 1.63874e-08, No Iterations 0
DICPCG:  Solving for p, Initial residual = 7.35938e-07, Final residual = 7.35938e-07, No Iterations 0
time step continuity errors : sum local = 4.79325e-10, global = 4.04637e-20, cumulative = -7.8837e-18
DICPCG:  Solving for p, Initial residual = 9.28286e-07, Final residual = 9.28286e-07, No Iterations 0
time step continuity errors : sum local = 5.88848e-10, global = 7.27628e-20, cumulative = -7.81094e-18
ExecutionTime = 7.93 s  ClockTime = 11 s

Time = 2.98875

Courant Number mean: 0.225662 max: 0.963312
smoothSolver:  Solving for Ux, Initial residual = 3.03328e-09, Final residual = 3.03328e-09, No Iterations 0
smoothSolver:  Solving for Uy, Initial residual = 8.24794e-09, Final residual = 8.24794e-09, No Iterations 0
DICPCG:  Solving for p, Initial residual = 1.07016e-06, Final residual = 1.08868e-07, No Iterations 1
time step continuity errors : sum local = 1.22263e-10, global = -1.62302e-19, cumulative = -7.97324e-18
DICPCG:  Solving for p, Initial residual = 5.24407e-07, Final residual = 5.24407e-07, No Iterations 0
time step continuity errors : sum local = 3.5887e-10, global = 7.2921e-20, cumulative = -7.90032e-18
ExecutionTime = 7.93 s  ClockTime = 11 s

Time = 2.99

Courant Number mean: 0.225662 max: 0.963312
smoothSolver:  Solving for Ux, Initial residual = 7.2247e-09, Final residual = 7.2247e-09, No Iterations 0
smoothSolver:  Solving for Uy, Initial residual = 1.9844e-08, Final residual = 1.9844e-08, No Iterations 0
DICPCG:  Solving for p, Initial residual = 8.83875e-07, Final residual = 8.83875e-07, No Iterations 0
time step continuity errors : sum local = 5.6355e-10, global = 1.17418e-19, cumulative = -7.7829e-18
DICPCG:  Solving for p, Initial residual = 1.11846e-06, Final residual = 1.09014e-07, No Iterations 1
time step continuity errors : sum local = 1.22335e-10, global = 7.06487e-20, cumulative = -7.71225e-18
ExecutionTime = 7.94 s  ClockTime = 11 s

Time = 2.99125

Courant Number mean: 0.225662 max: 0.963312
smoothSolver:  Solving for Ux, Initial residual = 9.29569e-09, Final residual = 9.29569e-09, No Iterations 0
smoothSolver:  Solving for Uy, Initial residual = 2.5584e-08, Final residual = 2.5584e-08, No Iterations 0
DICPCG:  Solving for p, Initial residual = 5.05154e-07, Final residual = 5.05154e-07, No Iterations 0
time step continuity errors : sum local = 3.47894e-10, global = 1.5991e-19, cumulative = -7.55234e-18
DICPCG:  Solving for p, Initial residual = 8.05848e-07, Final residual = 8.05848e-07, No Iterations 0
time step continuity errors : sum local = 5.19108e-10, global = 3.56226e-19, cumulative = -7.19611e-18
ExecutionTime = 7.94 s  ClockTime = 11 s

Time = 2.9925

Courant Number mean: 0.225662 max: 0.963312
smoothSolver:  Solving for Ux, Initial residual = 4.59944e-09, Final residual = 4.59944e-09, No Iterations 0
smoothSolver:  Solving for Uy, Initial residual = 1.256e-08, Final residual = 1.256e-08, No Iterations 0
DICPCG:  Solving for p, Initial residual = 1.02827e-06, Final residual = 1.08621e-07, No Iterations 1
time step continuity errors : sum local = 1.22099e-10, global = 1.25557e-20, cumulative = -7.18356e-18
DICPCG:  Solving for p, Initial residual = 4.50495e-07, Final residual = 4.50495e-07, No Iterations 0
time step continuity errors : sum local = 3.1676e-10, global = -4.74952e-19, cumulative = -7.65851e-18
ExecutionTime = 7.94 s  ClockTime = 11 s

Time = 2.99375

Courant Number mean: 0.225662 max: 0.963312
smoothSolver:  Solving for Ux, Initial residual = 6.11543e-09, Final residual = 6.11543e-09, No Iterations 0
smoothSolver:  Solving for Uy, Initial residual = 1.67718e-08, Final residual = 1.67718e-08, No Iterations 0
DICPCG:  Solving for p, Initial residual = 7.52957e-07, Final residual = 7.52957e-07, No Iterations 0
time step continuity errors : sum local = 4.88981e-10, global = 4.62696e-20, cumulative = -7.61224e-18
DICPCG:  Solving for p, Initial residual = 9.50087e-07, Final residual = 9.50087e-07, No Iterations 0
time step continuity errors : sum local = 6.01226e-10, global = -2.28906e-19, cumulative = -7.84115e-18
ExecutionTime = 7.94 s  ClockTime = 11 s

Time = 2.995

Courant Number mean: 0.225662 max: 0.963312
smoothSolver:  Solving for Ux, Initial residual = 3.09815e-09, Final residual = 3.09815e-09, No Iterations 0
smoothSolver:  Solving for Uy, Initial residual = 8.42551e-09, Final residual = 8.42551e-09, No Iterations 0
DICPCG:  Solving for p, Initial residual = 1.09535e-06, Final residual = 1.08852e-07, No Iterations 1
time step continuity errors : sum local = 1.22218e-10, global = 2.13949e-19, cumulative = -7.6272e-18
DICPCG:  Solving for p, Initial residual = 5.35023e-07, Final residual = 5.35023e-07, No Iterations 0
time step continuity errors : sum local = 3.64878e-10, global = 2.31996e-19, cumulative = -7.3952e-18
ExecutionTime = 7.95 s  ClockTime = 11 s

Time = 2.99625

Courant Number mean: 0.225662 max: 0.963312
smoothSolver:  Solving for Ux, Initial residual = 7.39117e-09, Final residual = 7.39117e-09, No Iterations 0
smoothSolver:  Solving for Uy, Initial residual = 2.03029e-08, Final residual = 2.03029e-08, No Iterations 0
DICPCG:  Solving for p, Initial residual = 9.03375e-07, Final residual = 9.03375e-07, No Iterations 0
time step continuity errors : sum local = 5.74617e-10, global = 1.03494e-19, cumulative = -7.29171e-18
DICPCG:  Solving for p, Initial residual = 1.1437e-06, Final residual = 1.09113e-07, No Iterations 1
time step continuity errors : sum local = 1.22355e-10, global = 4.89313e-21, cumulative = -7.28681e-18
ExecutionTime = 7.95 s  ClockTime = 11 s

Time = 2.9975

Courant Number mean: 0.225662 max: 0.963312
smoothSolver:  Solving for Ux, Initial residual = 9.49846e-09, Final residual = 9.49846e-09, No Iterations 0
smoothSolver:  Solving for Uy, Initial residual = 2.61552e-08, Final residual = 2.61552e-08, No Iterations 0
DICPCG:  Solving for p, Initial residual = 5.16025e-07, Final residual = 5.16025e-07, No Iterations 0
time step continuity errors : sum local = 3.54049e-10, global = 1.6378e-19, cumulative = -7.12303e-18
DICPCG:  Solving for p, Initial residual = 8.2365e-07, Final residual = 8.2365e-07, No Iterations 0
time step continuity errors : sum local = 5.2921e-10, global = 3.75e-19, cumulative = -6.74803e-18
ExecutionTime = 7.95 s  ClockTime = 11 s

Time = 2.99875

Courant Number mean: 0.225662 max: 0.963312
smoothSolver:  Solving for Ux, Initial residual = 4.69544e-09, Final residual = 4.69544e-09, No Iterations 0
smoothSolver:  Solving for Uy, Initial residual = 1.28305e-08, Final residual = 1.28305e-08, No Iterations 0
DICPCG:  Solving for p, Initial residual = 1.05112e-06, Final residual = 1.08612e-07, No Iterations 1
time step continuity errors : sum local = 1.22058e-10, global = -9.27712e-20, cumulative = -6.84081e-18
DICPCG:  Solving for p, Initial residual = 4.58495e-07, Final residual = 4.58495e-07, No Iterations 0
time step continuity errors : sum local = 3.21279e-10, global = -1.27285e-19, cumulative = -6.96809e-18
ExecutionTime = 7.96 s  ClockTime = 11 s

Time = 3

Courant Number mean: 0.225662 max: 0.963312
smoothSolver:  Solving for Ux, Initial residual = 6.24196e-09, Final residual = 6.24196e-09, No Iterations 0
smoothSolver:  Solving for Uy, Initial residual = 1.7127e-08, Final residual = 1.7127e-08, No Iterations 0
DICPCG:  Solving for p, Initial residual = 7.67858e-07, Final residual = 7.67858e-07, No Iterations 0
time step continuity errors : sum local = 4.97429e-10, global = 6.72929e-20, cumulative = -6.9008e-18
DICPCG:  Solving for p, Initial residual = 9.69482e-07, Final residual = 9.69482e-07, No Iterations 0
time step continuity errors : sum local = 6.12233e-10, global = 8.85274e-20, cumulative = -6.81227e-18
ExecutionTime = 7.98 s  ClockTime = 11 s

End

