/*---------------------------------------------------------------------------*\
  =========                 |
  \\      /  F ield         | OpenFOAM: The Open Source CFD Toolbox
   \\    /   O peration     | Website:  https://openfoam.org
    \\  /    A nd           | Version:  7
     \\/     M anipulation  |
\*---------------------------------------------------------------------------*/
Build  : 7
Exec   : icoFoam
Date   : Feb 11 2025
Time   : 00:30:00
Host   : "c207-020.frontera.tacc.utexas.edu"
PID    : 157823
I/O    : uncollated
Case   : /work2/10249/ctshep3141/frontera/coe347/COE-347-Open-Foam/of-project-1/extracred/Re-250-AR-2
nProcs : 1
sigFpe : Enabling floating point exception trapping (FOAM_SIGFPE).
fileModificationChecking : Monitoring run-time modified files using timeStampMaster (fileModificationSkew 10)
allowSystemOperations : Allowing user-supplied system call operations

// * * * * * * * * * * * * * * * * * * * * * * * * * * * * * * * * * * * * * //
Create time

Create mesh for time = 0

Reading transportProperties

Reading field p

Reading field U

Reading/calculating face flux field phi


Starting time loop

Time = 0.000625

Courant Number mean: 0 max: 0
smoothSolver:  Solving for Ux, Initial residual = 1, Final residual = 4.2161e-06, No Iterations 5
smoothSolver:  Solving for Uy, Initial residual = 0, Final residual = 0, No Iterations 0
DICPCG:  Solving for p, Initial residual = 1, Final residual = 0.0422522, No Iterations 176
time step continuity errors : sum local = 9.34312e-07, global = 2.33162e-21, cumulative = 2.33162e-21
DICPCG:  Solving for p, Initial residual = 0.200431, Final residual = 9.90359e-07, No Iterations 245
time step continuity errors : sum local = 6.15807e-11, global = 4.8424e-21, cumulative = 7.17401e-21
ExecutionTime = 0.27 s  ClockTime = 0 s

Time = 0.00125

Courant Number mean: 0.00506525 max: 0.181086
smoothSolver:  Solving for Ux, Initial residual = 0.284237, Final residual = 2.74678e-06, No Iterations 5
smoothSolver:  Solving for Uy, Initial residual = 0.327665, Final residual = 5.03219e-06, No Iterations 5
DICPCG:  Solving for p, Initial residual = 0.141262, Final residual = 0.00681405, No Iterations 172
time step continuity errors : sum local = 3.60459e-07, global = -2.8675e-21, cumulative = 4.30652e-21
DICPCG:  Solving for p, Initial residual = 0.0629207, Final residual = 7.95409e-07, No Iterations 237
time step continuity errors : sum local = 4.12212e-11, global = -6.84785e-21, cumulative = -2.54133e-21
ExecutionTime = 0.41 s  ClockTime = 0 s

Time = 0.001875

Courant Number mean: 0.00881233 max: 0.290705
smoothSolver:  Solving for Ux, Initial residual = 0.148099, Final residual = 1.51306e-06, No Iterations 5
smoothSolver:  Solving for Uy, Initial residual = 0.172505, Final residual = 2.67866e-06, No Iterations 5
DICPCG:  Solving for p, Initial residual = 0.093005, Final residual = 0.00436359, No Iterations 171
time step continuity errors : sum local = 2.46003e-07, global = -2.1586e-20, cumulative = -2.41274e-20
DICPCG:  Solving for p, Initial residual = 0.0392765, Final residual = 8.38966e-07, No Iterations 235
time step continuity errors : sum local = 4.71632e-11, global = -1.87687e-21, cumulative = -2.60042e-20
ExecutionTime = 0.56 s  ClockTime = 0 s

Time = 0.0025

Courant Number mean: 0.0117275 max: 0.359318
smoothSolver:  Solving for Ux, Initial residual = 0.094271, Final residual = 9.49107e-06, No Iterations 4
smoothSolver:  Solving for Uy, Initial residual = 0.109685, Final residual = 1.71974e-06, No Iterations 5
DICPCG:  Solving for p, Initial residual = 0.0664255, Final residual = 0.00329585, No Iterations 169
time step continuity errors : sum local = 1.96382e-07, global = 5.84873e-21, cumulative = -2.01555e-20
DICPCG:  Solving for p, Initial residual = 0.02715, Final residual = 8.73086e-07, No Iterations 232
time step continuity errors : sum local = 5.22984e-11, global = 3.11287e-21, cumulative = -1.70426e-20
ExecutionTime = 0.7 s  ClockTime = 1 s

Time = 0.003125

Courant Number mean: 0.0141213 max: 0.403976
smoothSolver:  Solving for Ux, Initial residual = 0.0671129, Final residual = 7.03672e-06, No Iterations 4
smoothSolver:  Solving for Uy, Initial residual = 0.0777549, Final residual = 1.22938e-06, No Iterations 5
DICPCG:  Solving for p, Initial residual = 0.049431, Final residual = 0.00241577, No Iterations 166
time step continuity errors : sum local = 1.51102e-07, global = -1.0941e-20, cumulative = -2.79836e-20
DICPCG:  Solving for p, Initial residual = 0.0198637, Final residual = 9.72064e-07, No Iterations 227
time step continuity errors : sum local = 6.12824e-11, global = 4.36482e-21, cumulative = -2.36188e-20
ExecutionTime = 0.84 s  ClockTime = 1 s

Time = 0.00375

Courant Number mean: 0.0161521 max: 0.434284
smoothSolver:  Solving for Ux, Initial residual = 0.0514667, Final residual = 5.57843e-06, No Iterations 4
smoothSolver:  Solving for Uy, Initial residual = 0.059277, Final residual = 8.58009e-06, No Iterations 4
DICPCG:  Solving for p, Initial residual = 0.038455, Final residual = 0.00176434, No Iterations 165
time step continuity errors : sum local = 1.14893e-07, global = -1.92729e-20, cumulative = -4.28917e-20
DICPCG:  Solving for p, Initial residual = 0.0153955, Final residual = 8.38098e-07, No Iterations 226
time step continuity errors : sum local = 5.50479e-11, global = -5.79836e-21, cumulative = -4.869e-20
ExecutionTime = 0.98 s  ClockTime = 1 s

Time = 0.004375

Courant Number mean: 0.0179188 max: 0.455745
smoothSolver:  Solving for Ux, Initial residual = 0.0415133, Final residual = 4.62532e-06, No Iterations 4
smoothSolver:  Solving for Uy, Initial residual = 0.0475627, Final residual = 6.91962e-06, No Iterations 4
DICPCG:  Solving for p, Initial residual = 0.0283176, Final residual = 0.00138604, No Iterations 164
time step continuity errors : sum local = 9.29621e-08, global = -3.94356e-20, cumulative = -8.81256e-20
DICPCG:  Solving for p, Initial residual = 0.0120383, Final residual = 9.14353e-07, No Iterations 224
time step continuity errors : sum local = 6.15348e-11, global = 1.96694e-20, cumulative = -6.84562e-20
ExecutionTime = 1.12 s  ClockTime = 1 s

Time = 0.005

Courant Number mean: 0.0195077 max: 0.471576
smoothSolver:  Solving for Ux, Initial residual = 0.0347848, Final residual = 3.95564e-06, No Iterations 4
smoothSolver:  Solving for Uy, Initial residual = 0.039608, Final residual = 5.78497e-06, No Iterations 4
DICPCG:  Solving for p, Initial residual = 0.0234383, Final residual = 0.00106991, No Iterations 164
time step continuity errors : sum local = 7.33409e-08, global = 3.41461e-20, cumulative = -3.43101e-20
DICPCG:  Solving for p, Initial residual = 0.0102577, Final residual = 8.47649e-07, No Iterations 223
time step continuity errors : sum local = 5.83239e-11, global = 1.81619e-20, cumulative = -1.61482e-20
ExecutionTime = 1.25 s  ClockTime = 1 s

Time = 0.005625

Courant Number mean: 0.020957 max: 0.483701
smoothSolver:  Solving for Ux, Initial residual = 0.0299162, Final residual = 3.46188e-06, No Iterations 4
smoothSolver:  Solving for Uy, Initial residual = 0.0339047, Final residual = 4.96685e-06, No Iterations 4
DICPCG:  Solving for p, Initial residual = 0.0199624, Final residual = 0.000959379, No Iterations 163
time step continuity errors : sum local = 6.7017e-08, global = 7.82035e-21, cumulative = -8.32789e-21
DICPCG:  Solving for p, Initial residual = 0.00880062, Final residual = 8.53946e-07, No Iterations 222
time step continuity errors : sum local = 5.98569e-11, global = -1.83278e-20, cumulative = -2.66557e-20
ExecutionTime = 1.39 s  ClockTime = 1 s

Time = 0.00625

Courant Number mean: 0.0222901 max: 0.4933
smoothSolver:  Solving for Ux, Initial residual = 0.0262445, Final residual = 3.08175e-06, No Iterations 4
smoothSolver:  Solving for Uy, Initial residual = 0.0296327, Final residual = 4.35099e-06, No Iterations 4
DICPCG:  Solving for p, Initial residual = 0.0174509, Final residual = 0.000794572, No Iterations 163
time step continuity errors : sum local = 5.63815e-08, global = 4.72972e-20, cumulative = 2.06415e-20
DICPCG:  Solving for p, Initial residual = 0.00770126, Final residual = 8.98321e-07, No Iterations 221
time step continuity errors : sum local = 6.3909e-11, global = 2.12699e-20, cumulative = 4.19114e-20
ExecutionTime = 1.53 s  ClockTime = 1 s

Time = 0.006875

Courant Number mean: 0.0235265 max: 0.501116
smoothSolver:  Solving for Ux, Initial residual = 0.0234064, Final residual = 2.77948e-06, No Iterations 4
smoothSolver:  Solving for Uy, Initial residual = 0.0263194, Final residual = 3.87124e-06, No Iterations 4
DICPCG:  Solving for p, Initial residual = 0.0155771, Final residual = 0.000744164, No Iterations 162
time step continuity errors : sum local = 5.35054e-08, global = 6.40747e-22, cumulative = 4.25522e-20
DICPCG:  Solving for p, Initial residual = 0.00691153, Final residual = 9.98097e-07, No Iterations 220
time step continuity errors : sum local = 7.18689e-11, global = -7.61522e-21, cumulative = 3.49369e-20
ExecutionTime = 1.66 s  ClockTime = 2 s

Time = 0.0075

Courant Number mean: 0.0246829 max: 0.507632
smoothSolver:  Solving for Ux, Initial residual = 0.0211317, Final residual = 2.5331e-06, No Iterations 4
smoothSolver:  Solving for Uy, Initial residual = 0.0236745, Final residual = 3.48694e-06, No Iterations 4
DICPCG:  Solving for p, Initial residual = 0.0141215, Final residual = 0.000642489, No Iterations 162
time step continuity errors : sum local = 4.67048e-08, global = -5.37831e-21, cumulative = 2.95586e-20
DICPCG:  Solving for p, Initial residual = 0.00631411, Final residual = 8.80154e-07, No Iterations 220
time step continuity errors : sum local = 6.40158e-11, global = 5.45389e-21, cumulative = 3.50125e-20
ExecutionTime = 1.8 s  ClockTime = 2 s

Time = 0.008125

Courant Number mean: 0.0257829 max: 0.513172
smoothSolver:  Solving for Ux, Initial residual = 0.0192559, Final residual = 2.32909e-06, No Iterations 4
smoothSolver:  Solving for Uy, Initial residual = 0.0215152, Final residual = 3.17213e-06, No Iterations 4
DICPCG:  Solving for p, Initial residual = 0.0129368, Final residual = 0.000634245, No Iterations 161
time step continuity errors : sum local = 4.65337e-08, global = 2.24106e-20, cumulative = 5.74231e-20
DICPCG:  Solving for p, Initial residual = 0.00583553, Final residual = 9.87998e-07, No Iterations 219
time step continuity errors : sum local = 7.24818e-11, global = -3.39682e-20, cumulative = 2.34549e-20
ExecutionTime = 1.93 s  ClockTime = 2 s

Time = 0.00875

Courant Number mean: 0.0268278 max: 0.517959
smoothSolver:  Solving for Ux, Initial residual = 0.0176962, Final residual = 2.15602e-06, No Iterations 4
smoothSolver:  Solving for Uy, Initial residual = 0.0197172, Final residual = 2.90937e-06, No Iterations 4
DICPCG:  Solving for p, Initial residual = 0.0120288, Final residual = 0.00055886, No Iterations 161
time step continuity errors : sum local = 4.1331e-08, global = 7.36895e-21, cumulative = 3.08239e-20
DICPCG:  Solving for p, Initial residual = 0.00544356, Final residual = 8.9427e-07, No Iterations 219
time step continuity errors : sum local = 6.60784e-11, global = 4.78741e-20, cumulative = 7.8698e-20
ExecutionTime = 2.07 s  ClockTime = 2 s

Time = 0.009375

Courant Number mean: 0.0278229 max: 0.522152
smoothSolver:  Solving for Ux, Initial residual = 0.0163734, Final residual = 2.00715e-06, No Iterations 4
smoothSolver:  Solving for Uy, Initial residual = 0.0181964, Final residual = 2.68667e-06, No Iterations 4
DICPCG:  Solving for p, Initial residual = 0.0111206, Final residual = 0.000548858, No Iterations 160
time step continuity errors : sum local = 4.08682e-08, global = -7.61581e-21, cumulative = 7.10821e-20
DICPCG:  Solving for p, Initial residual = 0.00507969, Final residual = 8.15591e-07, No Iterations 219
time step continuity errors : sum local = 6.06373e-11, global = 1.0778e-20, cumulative = 8.18601e-20
ExecutionTime = 2.21 s  ClockTime = 2 s

Time = 0.01

Courant Number mean: 0.0287715 max: 0.525864
smoothSolver:  Solving for Ux, Initial residual = 0.0152339, Final residual = 1.87764e-06, No Iterations 4
smoothSolver:  Solving for Uy, Initial residual = 0.0168935, Final residual = 2.49544e-06, No Iterations 4
DICPCG:  Solving for p, Initial residual = 0.0104525, Final residual = 0.000494617, No Iterations 160
time step continuity errors : sum local = 3.70512e-08, global = 3.99645e-21, cumulative = 8.58566e-20
DICPCG:  Solving for p, Initial residual = 0.00480642, Final residual = 9.56119e-07, No Iterations 218
time step continuity errors : sum local = 7.14938e-11, global = 4.9457e-21, cumulative = 9.08023e-20
ExecutionTime = 2.34 s  ClockTime = 2 s

Time = 0.010625

Courant Number mean: 0.0296785 max: 0.529183
smoothSolver:  Solving for Ux, Initial residual = 0.0142402, Final residual = 1.76424e-06, No Iterations 4
smoothSolver:  Solving for Uy, Initial residual = 0.0157645, Final residual = 2.32943e-06, No Iterations 4
DICPCG:  Solving for p, Initial residual = 0.00985854, Final residual = 0.000444736, No Iterations 160
time step continuity errors : sum local = 3.34942e-08, global = 1.09551e-20, cumulative = 1.01757e-19
DICPCG:  Solving for p, Initial residual = 0.00453486, Final residual = 8.94084e-07, No Iterations 218
time step continuity errors : sum local = 6.71744e-11, global = 4.17898e-20, cumulative = 1.43547e-19
ExecutionTime = 2.48 s  ClockTime = 2 s

Time = 0.01125

Courant Number mean: 0.0305487 max: 0.532174
smoothSolver:  Solving for Ux, Initial residual = 0.0133747, Final residual = 1.66475e-06, No Iterations 4
smoothSolver:  Solving for Uy, Initial residual = 0.0147762, Final residual = 2.1839e-06, No Iterations 4
DICPCG:  Solving for p, Initial residual = 0.00932875, Final residual = 0.000462558, No Iterations 159
time step continuity errors : sum local = 3.49944e-08, global = -2.63724e-20, cumulative = 1.17175e-19
DICPCG:  Solving for p, Initial residual = 0.00431946, Final residual = 8.33716e-07, No Iterations 218
time step continuity errors : sum local = 6.29089e-11, global = -1.20556e-21, cumulative = 1.15969e-19
ExecutionTime = 2.61 s  ClockTime = 3 s

Time = 0.011875

Courant Number mean: 0.0313938 max: 0.534888
smoothSolver:  Solving for Ux, Initial residual = 0.0126107, Final residual = 1.57601e-06, No Iterations 4
smoothSolver:  Solving for Uy, Initial residual = 0.013904, Final residual = 2.05531e-06, No Iterations 4
DICPCG:  Solving for p, Initial residual = 0.00888573, Final residual = 0.00042064, No Iterations 159
time step continuity errors : sum local = 3.19598e-08, global = 5.80731e-21, cumulative = 1.21777e-19
DICPCG:  Solving for p, Initial residual = 0.00413372, Final residual = 9.64536e-07, No Iterations 217
time step continuity errors : sum local = 7.30931e-11, global = 1.80307e-20, cumulative = 1.39807e-19
ExecutionTime = 2.75 s  ClockTime = 3 s

Time = 0.0125

Courant Number mean: 0.0322116 max: 0.537366
smoothSolver:  Solving for Ux, Initial residual = 0.0119266, Final residual = 1.496e-06, No Iterations 4
smoothSolver:  Solving for Uy, Initial residual = 0.0131286, Final residual = 1.94083e-06, No Iterations 4
DICPCG:  Solving for p, Initial residual = 0.00846657, Final residual = 0.000392737, No Iterations 159
time step continuity errors : sum local = 2.99553e-08, global = 4.66337e-20, cumulative = 1.86441e-19
DICPCG:  Solving for p, Initial residual = 0.00394433, Final residual = 9.02913e-07, No Iterations 217
time step continuity errors : sum local = 6.86695e-11, global = -8.20457e-21, cumulative = 1.78236e-19
ExecutionTime = 2.88 s  ClockTime = 3 s

Time = 0.013125

Courant Number mean: 0.0330029 max: 0.53964
smoothSolver:  Solving for Ux, Initial residual = 0.0113102, Final residual = 1.42353e-06, No Iterations 4
smoothSolver:  Solving for Uy, Initial residual = 0.0124349, Final residual = 1.83828e-06, No Iterations 4
DICPCG:  Solving for p, Initial residual = 0.00809072, Final residual = 0.000367502, No Iterations 159
time step continuity errors : sum local = 2.81314e-08, global = 2.59311e-20, cumulative = 2.04167e-19
DICPCG:  Solving for p, Initial residual = 0.00378221, Final residual = 9.4352e-07, No Iterations 216
time step continuity errors : sum local = 7.20187e-11, global = 7.24502e-22, cumulative = 2.04892e-19
ExecutionTime = 3.02 s  ClockTime = 3 s

Time = 0.01375

Courant Number mean: 0.0337689 max: 0.541737
smoothSolver:  Solving for Ux, Initial residual = 0.0107521, Final residual = 1.3576e-06, No Iterations 4
smoothSolver:  Solving for Uy, Initial residual = 0.0118103, Final residual = 1.74588e-06, No Iterations 4
DICPCG:  Solving for p, Initial residual = 0.00774986, Final residual = 0.00034553, No Iterations 159
time step continuity errors : sum local = 2.65348e-08, global = -2.14773e-20, cumulative = 1.83415e-19
DICPCG:  Solving for p, Initial residual = 0.00362509, Final residual = 9.85548e-07, No Iterations 215
time step continuity errors : sum local = 7.54614e-11, global = 2.02564e-20, cumulative = 2.03671e-19
ExecutionTime = 3.15 s  ClockTime = 3 s

Time = 0.014375

Courant Number mean: 0.0345104 max: 0.543679
smoothSolver:  Solving for Ux, Initial residual = 0.0102501, Final residual = 1.29779e-06, No Iterations 4
smoothSolver:  Solving for Uy, Initial residual = 0.0112454, Final residual = 1.6622e-06, No Iterations 4
DICPCG:  Solving for p, Initial residual = 0.00745992, Final residual = 0.000325554, No Iterations 159
time step continuity errors : sum local = 2.50691e-08, global = 4.68565e-20, cumulative = 2.50527e-19
DICPCG:  Solving for p, Initial residual = 0.00348341, Final residual = 9.45715e-07, No Iterations 215
time step continuity errors : sum local = 7.25775e-11, global = -1.23327e-20, cumulative = 2.38195e-19
ExecutionTime = 3.29 s  ClockTime = 3 s

Time = 0.015

Courant Number mean: 0.0352288 max: 0.545485
smoothSolver:  Solving for Ux, Initial residual = 0.00979446, Final residual = 1.24344e-06, No Iterations 4
smoothSolver:  Solving for Uy, Initial residual = 0.0107316, Final residual = 1.58607e-06, No Iterations 4
DICPCG:  Solving for p, Initial residual = 0.0071935, Final residual = 0.000358769, No Iterations 158
time step continuity errors : sum local = 2.76848e-08, global = 1.50763e-20, cumulative = 2.53271e-19
DICPCG:  Solving for p, Initial residual = 0.00338146, Final residual = 9.10699e-07, No Iterations 215
time step continuity errors : sum local = 7.00706e-11, global = 1.01369e-20, cumulative = 2.63408e-19
ExecutionTime = 3.42 s  ClockTime = 3 s

Time = 0.015625

Courant Number mean: 0.0359256 max: 0.547169
smoothSolver:  Solving for Ux, Initial residual = 0.00937755, Final residual = 1.19353e-06, No Iterations 4
smoothSolver:  Solving for Uy, Initial residual = 0.0102625, Final residual = 1.51649e-06, No Iterations 4
DICPCG:  Solving for p, Initial residual = 0.00696172, Final residual = 0.000335807, No Iterations 158
time step continuity errors : sum local = 2.59765e-08, global = 6.00663e-20, cumulative = 3.23474e-19
DICPCG:  Solving for p, Initial residual = 0.00328729, Final residual = 8.76708e-07, No Iterations 215
time step continuity errors : sum local = 6.76046e-11, global = -1.66609e-21, cumulative = 3.21808e-19
ExecutionTime = 3.55 s  ClockTime = 4 s

Time = 0.01625

Courant Number mean: 0.0366065 max: 0.548744
smoothSolver:  Solving for Ux, Initial residual = 0.00899405, Final residual = 1.14746e-06, No Iterations 4
smoothSolver:  Solving for Uy, Initial residual = 0.0098327, Final residual = 1.45268e-06, No Iterations 4
DICPCG:  Solving for p, Initial residual = 0.00674095, Final residual = 0.000322269, No Iterations 158
time step continuity errors : sum local = 2.49839e-08, global = -2.87331e-20, cumulative = 2.93075e-19
DICPCG:  Solving for p, Initial residual = 0.00318118, Final residual = 8.42234e-07, No Iterations 215
time step continuity errors : sum local = 6.50828e-11, global = -6.90615e-21, cumulative = 2.86169e-19
ExecutionTime = 3.69 s  ClockTime = 4 s

Time = 0.016875

Courant Number mean: 0.0372738 max: 0.550223
smoothSolver:  Solving for Ux, Initial residual = 0.00863855, Final residual = 1.10463e-06, No Iterations 4
smoothSolver:  Solving for Uy, Initial residual = 0.00943735, Final residual = 1.39394e-06, No Iterations 4
DICPCG:  Solving for p, Initial residual = 0.00654348, Final residual = 0.000307393, No Iterations 158
time step continuity errors : sum local = 2.38805e-08, global = -1.4284e-20, cumulative = 2.71885e-19
DICPCG:  Solving for p, Initial residual = 0.00308205, Final residual = 9.75933e-07, No Iterations 214
time step continuity errors : sum local = 7.55805e-11, global = 1.32755e-20, cumulative = 2.85161e-19
ExecutionTime = 3.82 s  ClockTime = 4 s

Time = 0.0175

Courant Number mean: 0.0379262 max: 0.551614
smoothSolver:  Solving for Ux, Initial residual = 0.00830881, Final residual = 9.90583e-06, No Iterations 3
smoothSolver:  Solving for Uy, Initial residual = 0.00907228, Final residual = 1.33969e-06, No Iterations 4
DICPCG:  Solving for p, Initial residual = 0.00634304, Final residual = 0.000293066, No Iterations 158
time step continuity errors : sum local = 2.28127e-08, global = 3.56543e-20, cumulative = 3.20815e-19
DICPCG:  Solving for p, Initial residual = 0.00297946, Final residual = 9.32574e-07, No Iterations 214
time step continuity errors : sum local = 7.23584e-11, global = 9.12991e-21, cumulative = 3.29945e-19
ExecutionTime = 3.96 s  ClockTime = 4 s

Time = 0.018125

Courant Number mean: 0.0385632 max: 0.552925
smoothSolver:  Solving for Ux, Initial residual = 0.00800499, Final residual = 9.55726e-06, No Iterations 3
smoothSolver:  Solving for Uy, Initial residual = 0.00873464, Final residual = 1.28947e-06, No Iterations 4
DICPCG:  Solving for p, Initial residual = 0.00615831, Final residual = 0.000306871, No Iterations 157
time step continuity errors : sum local = 2.39284e-08, global = -1.08437e-20, cumulative = 3.19101e-19
DICPCG:  Solving for p, Initial residual = 0.00291149, Final residual = 8.93111e-07, No Iterations 214
time step continuity errors : sum local = 6.94164e-11, global = -2.91095e-20, cumulative = 2.89992e-19
ExecutionTime = 4.09 s  ClockTime = 4 s

Time = 0.01875

Courant Number mean: 0.0391853 max: 0.554165
smoothSolver:  Solving for Ux, Initial residual = 0.0077228, Final residual = 9.23113e-06, No Iterations 3
smoothSolver:  Solving for Uy, Initial residual = 0.00842136, Final residual = 1.24283e-06, No Iterations 4
DICPCG:  Solving for p, Initial residual = 0.00599511, Final residual = 0.000293088, No Iterations 157
time step continuity errors : sum local = 2.28927e-08, global = 9.33565e-21, cumulative = 2.99327e-19
DICPCG:  Solving for p, Initial residual = 0.00284768, Final residual = 8.57351e-07, No Iterations 214
time step continuity errors : sum local = 6.67457e-11, global = -1.97289e-20, cumulative = 2.79598e-19
ExecutionTime = 4.22 s  ClockTime = 4 s

Time = 0.019375

Courant Number mean: 0.0397929 max: 0.555339
smoothSolver:  Solving for Ux, Initial residual = 0.00745946, Final residual = 8.92804e-06, No Iterations 3
smoothSolver:  Solving for Uy, Initial residual = 0.00812958, Final residual = 1.19938e-06, No Iterations 4
DICPCG:  Solving for p, Initial residual = 0.00589825, Final residual = 0.000288741, No Iterations 156
time step continuity errors : sum local = 2.25955e-08, global = -5.49404e-20, cumulative = 2.24658e-19
DICPCG:  Solving for p, Initial residual = 0.00276452, Final residual = 8.2311e-07, No Iterations 214
time step continuity errors : sum local = 6.41774e-11, global = 4.16766e-20, cumulative = 2.66334e-19
ExecutionTime = 4.35 s  ClockTime = 4 s

Time = 0.02

Courant Number mean: 0.0403864 max: 0.556453
smoothSolver:  Solving for Ux, Initial residual = 0.007213, Final residual = 8.64528e-06, No Iterations 3
smoothSolver:  Solving for Uy, Initial residual = 0.00785751, Final residual = 1.15884e-06, No Iterations 4
DICPCG:  Solving for p, Initial residual = 0.00568102, Final residual = 0.000278538, No Iterations 95
time step continuity errors : sum local = 2.57219e-08, global = -1.53076e-20, cumulative = 2.51027e-19
DICPCG:  Solving for p, Initial residual = 0.00270182, Final residual = 9.90515e-07, No Iterations 213
time step continuity errors : sum local = 7.74297e-11, global = 5.27812e-21, cumulative = 2.56305e-19
ExecutionTime = 4.46 s  ClockTime = 4 s

Time = 0.020625

Courant Number mean: 0.040967 max: 0.557511
smoothSolver:  Solving for Ux, Initial residual = 0.00697797, Final residual = 8.37545e-06, No Iterations 3
smoothSolver:  Solving for Uy, Initial residual = 0.00761091, Final residual = 1.1221e-06, No Iterations 4
DICPCG:  Solving for p, Initial residual = 0.00568918, Final residual = 0.000276105, No Iterations 86
time step continuity errors : sum local = 2.31617e-08, global = 2.58845e-21, cumulative = 2.58893e-19
DICPCG:  Solving for p, Initial residual = 0.00266517, Final residual = 9.85726e-07, No Iterations 213
time step continuity errors : sum local = 7.71556e-11, global = -7.31953e-21, cumulative = 2.51574e-19
ExecutionTime = 4.57 s  ClockTime = 5 s

Time = 0.02125

Courant Number mean: 0.0415344 max: 0.55852
smoothSolver:  Solving for Ux, Initial residual = 0.00676271, Final residual = 8.12957e-06, No Iterations 3
smoothSolver:  Solving for Uy, Initial residual = 0.00736682, Final residual = 9.85126e-06, No Iterations 3
DICPCG:  Solving for p, Initial residual = 0.00546104, Final residual = 0.000262627, No Iterations 91
time step continuity errors : sum local = 2.33979e-08, global = -2.51978e-20, cumulative = 2.26376e-19
DICPCG:  Solving for p, Initial residual = 0.00259648, Final residual = 9.43181e-07, No Iterations 213
time step continuity errors : sum local = 7.3939e-11, global = 3.61149e-20, cumulative = 2.62491e-19
ExecutionTime = 4.69 s  ClockTime = 5 s

Time = 0.021875

Courant Number mean: 0.0420908 max: 0.559481
smoothSolver:  Solving for Ux, Initial residual = 0.00655873, Final residual = 7.89336e-06, No Iterations 3
smoothSolver:  Solving for Uy, Initial residual = 0.00714546, Final residual = 9.55246e-06, No Iterations 3
DICPCG:  Solving for p, Initial residual = 0.00535239, Final residual = 0.000259094, No Iterations 87
time step continuity errors : sum local = 2.22814e-08, global = 4.06415e-20, cumulative = 3.03133e-19
DICPCG:  Solving for p, Initial residual = 0.00253455, Final residual = 9.13953e-07, No Iterations 213
time step continuity errors : sum local = 7.17426e-11, global = -4.73457e-20, cumulative = 2.55787e-19
ExecutionTime = 4.8 s  ClockTime = 5 s

Time = 0.0225

Courant Number mean: 0.0426404 max: 0.560399
smoothSolver:  Solving for Ux, Initial residual = 0.00636834, Final residual = 7.6717e-06, No Iterations 3
smoothSolver:  Solving for Uy, Initial residual = 0.0069333, Final residual = 9.26554e-06, No Iterations 3
DICPCG:  Solving for p, Initial residual = 0.005226, Final residual = 0.000260658, No Iterations 87
time step continuity errors : sum local = 2.27801e-08, global = -9.07374e-21, cumulative = 2.46713e-19
DICPCG:  Solving for p, Initial residual = 0.00252046, Final residual = 8.94166e-07, No Iterations 213
time step continuity errors : sum local = 7.0281e-11, global = -4.38576e-20, cumulative = 2.02856e-19
ExecutionTime = 4.91 s  ClockTime = 5 s

Time = 0.023125

Courant Number mean: 0.0431809 max: 0.561277
smoothSolver:  Solving for Ux, Initial residual = 0.00618727, Final residual = 7.45956e-06, No Iterations 3
smoothSolver:  Solving for Uy, Initial residual = 0.0067357, Final residual = 8.99839e-06, No Iterations 3
DICPCG:  Solving for p, Initial residual = 0.0051255, Final residual = 0.000252545, No Iterations 86
time step continuity errors : sum local = 2.18309e-08, global = 9.62379e-21, cumulative = 2.12479e-19
DICPCG:  Solving for p, Initial residual = 0.00245811, Final residual = 8.6647e-07, No Iterations 213
time step continuity errors : sum local = 6.81827e-11, global = 1.81152e-20, cumulative = 2.30595e-19
ExecutionTime = 5.02 s  ClockTime = 5 s

Time = 0.02375

Courant Number mean: 0.0437119 max: 0.562118
smoothSolver:  Solving for Ux, Initial residual = 0.00601624, Final residual = 7.25962e-06, No Iterations 3
smoothSolver:  Solving for Uy, Initial residual = 0.00654785, Final residual = 8.74467e-06, No Iterations 3
DICPCG:  Solving for p, Initial residual = 0.00503021, Final residual = 0.000247647, No Iterations 86
time step continuity errors : sum local = 2.15348e-08, global = 6.33907e-20, cumulative = 2.93985e-19
DICPCG:  Solving for p, Initial residual = 0.00242658, Final residual = 8.41066e-07, No Iterations 213
time step continuity errors : sum local = 6.6257e-11, global = -1.15727e-20, cumulative = 2.82412e-19
ExecutionTime = 5.12 s  ClockTime = 5 s

Time = 0.024375

Courant Number mean: 0.0442336 max: 0.562924
smoothSolver:  Solving for Ux, Initial residual = 0.00585368, Final residual = 7.07041e-06, No Iterations 3
smoothSolver:  Solving for Uy, Initial residual = 0.00637112, Final residual = 8.50568e-06, No Iterations 3
DICPCG:  Solving for p, Initial residual = 0.00493814, Final residual = 0.000238464, No Iterations 86
time step continuity errors : sum local = 2.06818e-08, global = -4.70502e-20, cumulative = 2.35362e-19
DICPCG:  Solving for p, Initial residual = 0.00237398, Final residual = 8.1467e-07, No Iterations 213
time step continuity errors : sum local = 6.42453e-11, global = 2.21215e-20, cumulative = 2.57484e-19
ExecutionTime = 5.23 s  ClockTime = 5 s

Time = 0.025

Courant Number mean: 0.0447462 max: 0.563697
smoothSolver:  Solving for Ux, Initial residual = 0.00569941, Final residual = 6.8912e-06, No Iterations 3
smoothSolver:  Solving for Uy, Initial residual = 0.00620352, Final residual = 8.27875e-06, No Iterations 3
DICPCG:  Solving for p, Initial residual = 0.0048424, Final residual = 0.000231822, No Iterations 86
time step continuity errors : sum local = 2.01583e-08, global = 4.12338e-20, cumulative = 2.98717e-19
DICPCG:  Solving for p, Initial residual = 0.00232614, Final residual = 7.91528e-07, No Iterations 213
time step continuity errors : sum local = 6.24843e-11, global = 3.74896e-20, cumulative = 3.36207e-19
ExecutionTime = 5.34 s  ClockTime = 5 s

Time = 0.025625

Courant Number mean: 0.0452499 max: 0.56444
smoothSolver:  Solving for Ux, Initial residual = 0.00555256, Final residual = 6.7209e-06, No Iterations 3
smoothSolver:  Solving for Uy, Initial residual = 0.00604479, Final residual = 8.06408e-06, No Iterations 3
DICPCG:  Solving for p, Initial residual = 0.00475045, Final residual = 0.0002348, No Iterations 85
time step continuity errors : sum local = 2.03228e-08, global = 1.58539e-21, cumulative = 3.37792e-19
DICPCG:  Solving for p, Initial residual = 0.00228237, Final residual = 7.7479e-07, No Iterations 213
time step continuity errors : sum local = 6.1226e-11, global = 4.88921e-21, cumulative = 3.42682e-19
ExecutionTime = 5.45 s  ClockTime = 5 s

Time = 0.02625

Courant Number mean: 0.0457447 max: 0.565155
smoothSolver:  Solving for Ux, Initial residual = 0.00541339, Final residual = 6.55878e-06, No Iterations 3
smoothSolver:  Solving for Uy, Initial residual = 0.00589403, Final residual = 7.86019e-06, No Iterations 3
DICPCG:  Solving for p, Initial residual = 0.00467169, Final residual = 0.000228642, No Iterations 85
time step continuity errors : sum local = 1.98125e-08, global = 9.59813e-21, cumulative = 3.5228e-19
DICPCG:  Solving for p, Initial residual = 0.00225873, Final residual = 9.97254e-07, No Iterations 212
time step continuity errors : sum local = 7.88925e-11, global = -1.3118e-20, cumulative = 3.39162e-19
ExecutionTime = 5.55 s  ClockTime = 6 s

Time = 0.026875

Courant Number mean: 0.046231 max: 0.565844
smoothSolver:  Solving for Ux, Initial residual = 0.00528156, Final residual = 6.404e-06, No Iterations 3
smoothSolver:  Solving for Uy, Initial residual = 0.00575086, Final residual = 7.66631e-06, No Iterations 3
DICPCG:  Solving for p, Initial residual = 0.00458492, Final residual = 0.000221986, No Iterations 85
time step continuity errors : sum local = 1.92436e-08, global = 3.31021e-20, cumulative = 3.72264e-19
DICPCG:  Solving for p, Initial residual = 0.00221864, Final residual = 9.75859e-07, No Iterations 212
time step continuity errors : sum local = 7.72773e-11, global = 3.05939e-20, cumulative = 4.02858e-19
ExecutionTime = 5.66 s  ClockTime = 6 s

Time = 0.0275

Courant Number mean: 0.0467088 max: 0.566507
smoothSolver:  Solving for Ux, Initial residual = 0.00515611, Final residual = 6.25612e-06, No Iterations 3
smoothSolver:  Solving for Uy, Initial residual = 0.00561459, Final residual = 7.4818e-06, No Iterations 3
DICPCG:  Solving for p, Initial residual = 0.0045016, Final residual = 0.000215922, No Iterations 85
time step continuity errors : sum local = 1.87351e-08, global = -4.42194e-20, cumulative = 3.58638e-19
DICPCG:  Solving for p, Initial residual = 0.00217971, Final residual = 9.56081e-07, No Iterations 212
time step continuity errors : sum local = 7.57837e-11, global = 1.30508e-20, cumulative = 3.71689e-19
ExecutionTime = 5.77 s  ClockTime = 6 s

Time = 0.028125

Courant Number mean: 0.0471781 max: 0.567147
smoothSolver:  Solving for Ux, Initial residual = 0.00503637, Final residual = 6.11449e-06, No Iterations 3
smoothSolver:  Solving for Uy, Initial residual = 0.00548482, Final residual = 7.3062e-06, No Iterations 3
DICPCG:  Solving for p, Initial residual = 0.00442229, Final residual = 0.000209829, No Iterations 85
time step continuity errors : sum local = 1.82185e-08, global = -1.03227e-20, cumulative = 3.61367e-19
DICPCG:  Solving for p, Initial residual = 0.00214341, Final residual = 9.35457e-07, No Iterations 212
time step continuity errors : sum local = 7.42187e-11, global = -9.40813e-21, cumulative = 3.51958e-19
ExecutionTime = 5.87 s  ClockTime = 6 s

Time = 0.02875

Courant Number mean: 0.0476403 max: 0.567765
smoothSolver:  Solving for Ux, Initial residual = 0.00492204, Final residual = 5.97903e-06, No Iterations 3
smoothSolver:  Solving for Uy, Initial residual = 0.00536107, Final residual = 7.13868e-06, No Iterations 3
DICPCG:  Solving for p, Initial residual = 0.00443006, Final residual = 0.000203988, No Iterations 85
time step continuity errors : sum local = 1.77266e-08, global = -4.7375e-20, cumulative = 3.04583e-19
DICPCG:  Solving for p, Initial residual = 0.00210922, Final residual = 9.15134e-07, No Iterations 212
time step continuity errors : sum local = 7.2671e-11, global = 2.937e-21, cumulative = 3.0752e-19
ExecutionTime = 5.98 s  ClockTime = 6 s

Time = 0.029375

Courant Number mean: 0.0480984 max: 0.568362
smoothSolver:  Solving for Ux, Initial residual = 0.00481238, Final residual = 5.8499e-06, No Iterations 3
smoothSolver:  Solving for Uy, Initial residual = 0.0052431, Final residual = 6.97868e-06, No Iterations 3
DICPCG:  Solving for p, Initial residual = 0.00429877, Final residual = 0.000198864, No Iterations 85
time step continuity errors : sum local = 1.72914e-08, global = 1.00612e-21, cumulative = 3.08527e-19
DICPCG:  Solving for p, Initial residual = 0.00207676, Final residual = 8.93041e-07, No Iterations 212
time step continuity errors : sum local = 7.09769e-11, global = 3.94255e-20, cumulative = 3.47952e-19
ExecutionTime = 6.09 s  ClockTime = 6 s

Time = 0.03

Courant Number mean: 0.048551 max: 0.568939
smoothSolver:  Solving for Ux, Initial residual = 0.0047071, Final residual = 5.72616e-06, No Iterations 3
smoothSolver:  Solving for Uy, Initial residual = 0.00513032, Final residual = 6.82595e-06, No Iterations 3
DICPCG:  Solving for p, Initial residual = 0.00436012, Final residual = 0.000217515, No Iterations 84
time step continuity errors : sum local = 1.87445e-08, global = -3.97397e-20, cumulative = 3.08212e-19
DICPCG:  Solving for p, Initial residual = 0.00205393, Final residual = 8.73272e-07, No Iterations 212
time step continuity errors : sum local = 6.94679e-11, global = -1.42481e-21, cumulative = 3.06788e-19
ExecutionTime = 6.19 s  ClockTime = 6 s

Time = 0.030625

Courant Number mean: 0.0489976 max: 0.569497
smoothSolver:  Solving for Ux, Initial residual = 0.00460589, Final residual = 5.60749e-06, No Iterations 3
smoothSolver:  Solving for Uy, Initial residual = 0.0050224, Final residual = 6.68005e-06, No Iterations 3
DICPCG:  Solving for p, Initial residual = 0.00422834, Final residual = 0.00018916, No Iterations 85
time step continuity errors : sum local = 1.64663e-08, global = -1.0626e-20, cumulative = 2.96162e-19
DICPCG:  Solving for p, Initial residual = 0.00200611, Final residual = 8.53273e-07, No Iterations 212
time step continuity errors : sum local = 6.79336e-11, global = 1.00226e-20, cumulative = 3.06184e-19
ExecutionTime = 6.3 s  ClockTime = 6 s

Time = 0.03125

Courant Number mean: 0.0494383 max: 0.570038
smoothSolver:  Solving for Ux, Initial residual = 0.00450896, Final residual = 5.49363e-06, No Iterations 3
smoothSolver:  Solving for Uy, Initial residual = 0.00491911, Final residual = 6.54006e-06, No Iterations 3
DICPCG:  Solving for p, Initial residual = 0.00410234, Final residual = 0.000186841, No Iterations 85
time step continuity errors : sum local = 1.62618e-08, global = 2.16018e-20, cumulative = 3.27786e-19
DICPCG:  Solving for p, Initial residual = 0.00198743, Final residual = 8.36425e-07, No Iterations 212
time step continuity errors : sum local = 6.66515e-11, global = -5.97645e-21, cumulative = 3.2181e-19
ExecutionTime = 6.41 s  ClockTime = 6 s

Time = 0.031875

Courant Number mean: 0.0498729 max: 0.570562
smoothSolver:  Solving for Ux, Initial residual = 0.00441626, Final residual = 5.38406e-06, No Iterations 3
smoothSolver:  Solving for Uy, Initial residual = 0.00482032, Final residual = 6.40599e-06, No Iterations 3
DICPCG:  Solving for p, Initial residual = 0.00404728, Final residual = 0.000182625, No Iterations 85
time step continuity errors : sum local = 1.59027e-08, global = 3.8892e-21, cumulative = 3.25699e-19
DICPCG:  Solving for p, Initial residual = 0.00195812, Final residual = 8.19969e-07, No Iterations 212
time step continuity errors : sum local = 6.5405e-11, global = 2.64968e-20, cumulative = 3.52196e-19
ExecutionTime = 6.51 s  ClockTime = 6 s

Time = 0.0325

Courant Number mean: 0.0503014 max: 0.57107
smoothSolver:  Solving for Ux, Initial residual = 0.00432735, Final residual = 5.27853e-06, No Iterations 3
smoothSolver:  Solving for Uy, Initial residual = 0.0047255, Final residual = 6.27759e-06, No Iterations 3
DICPCG:  Solving for p, Initial residual = 0.00399559, Final residual = 0.000178987, No Iterations 85
time step continuity errors : sum local = 1.55929e-08, global = 2.77835e-21, cumulative = 3.54974e-19
DICPCG:  Solving for p, Initial residual = 0.00192957, Final residual = 8.01823e-07, No Iterations 212
time step continuity errors : sum local = 6.40183e-11, global = -3.25698e-20, cumulative = 3.22404e-19
ExecutionTime = 6.62 s  ClockTime = 7 s

Time = 0.033125

Courant Number mean: 0.050724 max: 0.571562
smoothSolver:  Solving for Ux, Initial residual = 0.0042419, Final residual = 5.17675e-06, No Iterations 3
smoothSolver:  Solving for Uy, Initial residual = 0.00463444, Final residual = 6.15438e-06, No Iterations 3
DICPCG:  Solving for p, Initial residual = 0.00394328, Final residual = 0.000175054, No Iterations 85
time step continuity errors : sum local = 1.52587e-08, global = -4.87248e-20, cumulative = 2.73679e-19
DICPCG:  Solving for p, Initial residual = 0.00190298, Final residual = 9.92995e-07, No Iterations 211
time step continuity errors : sum local = 7.93637e-11, global = -1.88943e-20, cumulative = 2.54785e-19
ExecutionTime = 6.73 s  ClockTime = 7 s

Time = 0.03375

Courant Number mean: 0.0511407 max: 0.572041
smoothSolver:  Solving for Ux, Initial residual = 0.00415964, Final residual = 5.07853e-06, No Iterations 3
smoothSolver:  Solving for Uy, Initial residual = 0.00454712, Final residual = 6.0359e-06, No Iterations 3
DICPCG:  Solving for p, Initial residual = 0.00389138, Final residual = 0.000194205, No Iterations 84
time step continuity errors : sum local = 1.67692e-08, global = -1.93031e-20, cumulative = 2.35482e-19
DICPCG:  Solving for p, Initial residual = 0.00188797, Final residual = 9.69627e-07, No Iterations 211
time step continuity errors : sum local = 7.7559e-11, global = -3.32156e-20, cumulative = 2.02266e-19
ExecutionTime = 6.83 s  ClockTime = 7 s

Time = 0.034375

Courant Number mean: 0.0515518 max: 0.572506
smoothSolver:  Solving for Ux, Initial residual = 0.00408042, Final residual = 4.98374e-06, No Iterations 3
smoothSolver:  Solving for Uy, Initial residual = 0.00446325, Final residual = 5.92226e-06, No Iterations 3
DICPCG:  Solving for p, Initial residual = 0.00385144, Final residual = 0.00019049, No Iterations 84
time step continuity errors : sum local = 1.64549e-08, global = 1.99214e-20, cumulative = 2.22188e-19
DICPCG:  Solving for p, Initial residual = 0.00188074, Final residual = 9.46766e-07, No Iterations 211
time step continuity errors : sum local = 7.57923e-11, global = 3.53583e-20, cumulative = 2.57546e-19
ExecutionTime = 6.94 s  ClockTime = 7 s

Time = 0.035

Courant Number mean: 0.0519573 max: 0.572957
smoothSolver:  Solving for Ux, Initial residual = 0.00400408, Final residual = 4.8929e-06, No Iterations 3
smoothSolver:  Solving for Uy, Initial residual = 0.00438252, Final residual = 5.81295e-06, No Iterations 3
DICPCG:  Solving for p, Initial residual = 0.00380207, Final residual = 0.000187331, No Iterations 84
time step continuity errors : sum local = 1.61881e-08, global = -2.37505e-20, cumulative = 2.33796e-19
DICPCG:  Solving for p, Initial residual = 0.00185759, Final residual = 9.2283e-07, No Iterations 211
time step continuity errors : sum local = 7.39363e-11, global = -7.05025e-20, cumulative = 1.63293e-19
ExecutionTime = 7.04 s  ClockTime = 7 s

Time = 0.035625

Courant Number mean: 0.0523572 max: 0.573396
smoothSolver:  Solving for Ux, Initial residual = 0.00393041, Final residual = 4.80555e-06, No Iterations 3
smoothSolver:  Solving for Uy, Initial residual = 0.00430483, Final residual = 5.70763e-06, No Iterations 3
DICPCG:  Solving for p, Initial residual = 0.00375445, Final residual = 0.000183577, No Iterations 84
time step continuity errors : sum local = 1.58727e-08, global = 1.97607e-22, cumulative = 1.63491e-19
DICPCG:  Solving for p, Initial residual = 0.00183562, Final residual = 8.97975e-07, No Iterations 211
time step continuity errors : sum local = 7.20026e-11, global = -5.16958e-20, cumulative = 1.11795e-19
ExecutionTime = 7.15 s  ClockTime = 7 s

Time = 0.03625

Courant Number mean: 0.0527517 max: 0.573824
smoothSolver:  Solving for Ux, Initial residual = 0.00385921, Final residual = 4.72149e-06, No Iterations 3
smoothSolver:  Solving for Uy, Initial residual = 0.00423015, Final residual = 5.60621e-06, No Iterations 3
DICPCG:  Solving for p, Initial residual = 0.00370765, Final residual = 0.000179874, No Iterations 84
time step continuity errors : sum local = 1.55626e-08, global = -5.84435e-20, cumulative = 5.33514e-20
DICPCG:  Solving for p, Initial residual = 0.00181386, Final residual = 8.72942e-07, No Iterations 211
time step continuity errors : sum local = 7.00513e-11, global = 3.63563e-20, cumulative = 8.97077e-20
ExecutionTime = 7.26 s  ClockTime = 7 s

Time = 0.036875

Courant Number mean: 0.0531407 max: 0.574239
smoothSolver:  Solving for Ux, Initial residual = 0.00379055, Final residual = 4.64032e-06, No Iterations 3
smoothSolver:  Solving for Uy, Initial residual = 0.00415813, Final residual = 5.50863e-06, No Iterations 3
DICPCG:  Solving for p, Initial residual = 0.00366265, Final residual = 0.000175373, No Iterations 84
time step continuity errors : sum local = 1.51888e-08, global = 2.30781e-20, cumulative = 1.12786e-19
DICPCG:  Solving for p, Initial residual = 0.0017924, Final residual = 8.47417e-07, No Iterations 211
time step continuity errors : sum local = 6.80584e-11, global = -7.35861e-21, cumulative = 1.05427e-19
ExecutionTime = 7.36 s  ClockTime = 7 s

Time = 0.0375

Courant Number mean: 0.0535267 max: 0.574644
smoothSolver:  Solving for Ux, Initial residual = 0.00372456, Final residual = 4.56174e-06, No Iterations 3
smoothSolver:  Solving for Uy, Initial residual = 0.0040887, Final residual = 5.41451e-06, No Iterations 3
DICPCG:  Solving for p, Initial residual = 0.0036918, Final residual = 0.000171392, No Iterations 84
time step continuity errors : sum local = 1.48572e-08, global = -6.03484e-21, cumulative = 9.93924e-20
DICPCG:  Solving for p, Initial residual = 0.00177316, Final residual = 9.89454e-07, No Iterations 210
time step continuity errors : sum local = 7.9553e-11, global = 4.57842e-20, cumulative = 1.45177e-19
ExecutionTime = 7.47 s  ClockTime = 7 s

Time = 0.038125

Courant Number mean: 0.0539098 max: 0.575039
smoothSolver:  Solving for Ux, Initial residual = 0.00366076, Final residual = 4.48549e-06, No Iterations 3
smoothSolver:  Solving for Uy, Initial residual = 0.00402182, Final residual = 5.32367e-06, No Iterations 3
DICPCG:  Solving for p, Initial residual = 0.0037416, Final residual = 0.000168544, No Iterations 84
time step continuity errors : sum local = 1.46166e-08, global = -8.95874e-21, cumulative = 1.36218e-19
DICPCG:  Solving for p, Initial residual = 0.00175745, Final residual = 9.70157e-07, No Iterations 210
time step continuity errors : sum local = 7.80626e-11, global = 4.55039e-20, cumulative = 1.81722e-19
ExecutionTime = 7.58 s  ClockTime = 8 s

Time = 0.03875

Courant Number mean: 0.0542889 max: 0.575424
smoothSolver:  Solving for Ux, Initial residual = 0.00359901, Final residual = 4.41149e-06, No Iterations 3
smoothSolver:  Solving for Uy, Initial residual = 0.0039572, Final residual = 5.23612e-06, No Iterations 3
DICPCG:  Solving for p, Initial residual = 0.00354446, Final residual = 0.00016818, No Iterations 84
time step continuity errors : sum local = 1.45767e-08, global = 2.27675e-20, cumulative = 2.04489e-19
DICPCG:  Solving for p, Initial residual = 0.00173674, Final residual = 9.21164e-07, No Iterations 210
time step continuity errors : sum local = 7.41787e-11, global = 3.32656e-21, cumulative = 2.07816e-19
ExecutionTime = 7.68 s  ClockTime = 8 s

Time = 0.039375

Courant Number mean: 0.054664 max: 0.575799
smoothSolver:  Solving for Ux, Initial residual = 0.00353922, Final residual = 4.3396e-06, No Iterations 3
smoothSolver:  Solving for Uy, Initial residual = 0.00389483, Final residual = 5.15158e-06, No Iterations 3
DICPCG:  Solving for p, Initial residual = 0.00351068, Final residual = 0.000165431, No Iterations 84
time step continuity errors : sum local = 1.43463e-08, global = -5.94268e-20, cumulative = 1.48389e-19
DICPCG:  Solving for p, Initial residual = 0.00171828, Final residual = 8.8354e-07, No Iterations 210
time step continuity errors : sum local = 7.12024e-11, global = 7.02589e-20, cumulative = 2.18648e-19
ExecutionTime = 7.79 s  ClockTime = 8 s

Time = 0.04

Courant Number mean: 0.0550351 max: 0.576165
smoothSolver:  Solving for Ux, Initial residual = 0.0034813, Final residual = 4.2698e-06, No Iterations 3
smoothSolver:  Solving for Uy, Initial residual = 0.00383453, Final residual = 5.06986e-06, No Iterations 3
DICPCG:  Solving for p, Initial residual = 0.00347515, Final residual = 0.000162317, No Iterations 84
time step continuity errors : sum local = 1.40852e-08, global = -5.25985e-21, cumulative = 2.13388e-19
DICPCG:  Solving for p, Initial residual = 0.00170046, Final residual = 8.43159e-07, No Iterations 210
time step continuity errors : sum local = 6.7996e-11, global = -3.0653e-20, cumulative = 1.82735e-19
ExecutionTime = 7.89 s  ClockTime = 8 s

Time = 0.040625

Courant Number mean: 0.0554021 max: 0.576522
smoothSolver:  Solving for Ux, Initial residual = 0.00342512, Final residual = 4.20208e-06, No Iterations 3
smoothSolver:  Solving for Uy, Initial residual = 0.0037763, Final residual = 4.99086e-06, No Iterations 3
DICPCG:  Solving for p, Initial residual = 0.00344105, Final residual = 0.000159659, No Iterations 84
time step continuity errors : sum local = 1.3862e-08, global = 5.50636e-20, cumulative = 2.37799e-19
DICPCG:  Solving for p, Initial residual = 0.0016827, Final residual = 9.59164e-07, No Iterations 209
time step continuity errors : sum local = 7.73962e-11, global = -3.43657e-20, cumulative = 2.03433e-19
ExecutionTime = 8 s  ClockTime = 8 s

Time = 0.04125

Courant Number mean: 0.0557648 max: 0.57687
smoothSolver:  Solving for Ux, Initial residual = 0.00337056, Final residual = 4.13681e-06, No Iterations 3
smoothSolver:  Solving for Uy, Initial residual = 0.00371996, Final residual = 4.91448e-06, No Iterations 3
DICPCG:  Solving for p, Initial residual = 0.00340897, Final residual = 0.000157013, No Iterations 84
time step continuity errors : sum local = 1.36391e-08, global = -4.95483e-20, cumulative = 1.53885e-19
DICPCG:  Solving for p, Initial residual = 0.00166517, Final residual = 9.13714e-07, No Iterations 209
time step continuity errors : sum local = 7.37725e-11, global = 3.49165e-20, cumulative = 1.88801e-19
ExecutionTime = 8.11 s  ClockTime = 8 s

Time = 0.041875

Courant Number mean: 0.0561237 max: 0.577211
smoothSolver:  Solving for Ux, Initial residual = 0.0033176, Final residual = 4.07371e-06, No Iterations 3
smoothSolver:  Solving for Uy, Initial residual = 0.00366548, Final residual = 4.84056e-06, No Iterations 3
DICPCG:  Solving for p, Initial residual = 0.00337665, Final residual = 0.00015446, No Iterations 84
time step continuity errors : sum local = 1.34245e-08, global = -5.05854e-21, cumulative = 1.83743e-19
DICPCG:  Solving for p, Initial residual = 0.00164831, Final residual = 8.69709e-07, No Iterations 209
time step continuity errors : sum local = 7.02792e-11, global = 2.977e-20, cumulative = 2.13513e-19
ExecutionTime = 8.21 s  ClockTime = 8 s

Time = 0.0425

Courant Number mean: 0.0564783 max: 0.577543
smoothSolver:  Solving for Ux, Initial residual = 0.00326615, Final residual = 4.01252e-06, No Iterations 3
smoothSolver:  Solving for Uy, Initial residual = 0.00361277, Final residual = 4.76898e-06, No Iterations 3
DICPCG:  Solving for p, Initial residual = 0.00334366, Final residual = 0.000151995, No Iterations 84
time step continuity errors : sum local = 1.32168e-08, global = -6.15422e-21, cumulative = 2.07358e-19
DICPCG:  Solving for p, Initial residual = 0.00163194, Final residual = 9.988e-07, No Iterations 208
time step continuity errors : sum local = 8.07581e-11, global = -6.71769e-20, cumulative = 1.40181e-19
ExecutionTime = 8.32 s  ClockTime = 8 s

Time = 0.043125

Courant Number mean: 0.0568292 max: 0.577869
smoothSolver:  Solving for Ux, Initial residual = 0.00321628, Final residual = 3.95309e-06, No Iterations 3
smoothSolver:  Solving for Uy, Initial residual = 0.00356174, Final residual = 4.69967e-06, No Iterations 3
DICPCG:  Solving for p, Initial residual = 0.00331221, Final residual = 0.000149807, No Iterations 84
time step continuity errors : sum local = 1.3032e-08, global = -3.85465e-20, cumulative = 1.01635e-19
DICPCG:  Solving for p, Initial residual = 0.00161755, Final residual = 9.5837e-07, No Iterations 208
time step continuity errors : sum local = 7.75617e-11, global = 5.49073e-20, cumulative = 1.56542e-19
ExecutionTime = 8.42 s  ClockTime = 8 s

Time = 0.04375

Courant Number mean: 0.0571763 max: 0.578187
smoothSolver:  Solving for Ux, Initial residual = 0.00316811, Final residual = 3.89533e-06, No Iterations 3
smoothSolver:  Solving for Uy, Initial residual = 0.0035123, Final residual = 4.63254e-06, No Iterations 3
DICPCG:  Solving for p, Initial residual = 0.00328056, Final residual = 0.000147505, No Iterations 84
time step continuity errors : sum local = 1.2838e-08, global = -4.22519e-20, cumulative = 1.1429e-19
DICPCG:  Solving for p, Initial residual = 0.00160249, Final residual = 9.30609e-07, No Iterations 208
time step continuity errors : sum local = 7.5384e-11, global = 3.22179e-20, cumulative = 1.46508e-19
ExecutionTime = 8.53 s  ClockTime = 9 s

Time = 0.044375

Courant Number mean: 0.0575195 max: 0.578498
smoothSolver:  Solving for Ux, Initial residual = 0.00312143, Final residual = 3.83915e-06, No Iterations 3
smoothSolver:  Solving for Uy, Initial residual = 0.00346438, Final residual = 4.56749e-06, No Iterations 3
DICPCG:  Solving for p, Initial residual = 0.00324929, Final residual = 0.000145516, No Iterations 84
time step continuity errors : sum local = 1.26692e-08, global = -4.62756e-20, cumulative = 1.00233e-19
DICPCG:  Solving for p, Initial residual = 0.00158834, Final residual = 9.13946e-07, No Iterations 208
time step continuity errors : sum local = 7.41004e-11, global = 1.26563e-20, cumulative = 1.12889e-19
ExecutionTime = 8.63 s  ClockTime = 9 s

Time = 0.045

Courant Number mean: 0.0578589 max: 0.578802
smoothSolver:  Solving for Ux, Initial residual = 0.00307611, Final residual = 3.78448e-06, No Iterations 3
smoothSolver:  Solving for Uy, Initial residual = 0.00341792, Final residual = 4.50442e-06, No Iterations 3
DICPCG:  Solving for p, Initial residual = 0.00321802, Final residual = 0.000143856, No Iterations 84
time step continuity errors : sum local = 1.25273e-08, global = -5.43266e-20, cumulative = 5.85623e-20
DICPCG:  Solving for p, Initial residual = 0.00157494, Final residual = 9.14235e-07, No Iterations 208
time step continuity errors : sum local = 7.41868e-11, global = 3.20279e-20, cumulative = 9.05902e-20
ExecutionTime = 8.74 s  ClockTime = 9 s

Time = 0.045625

Courant Number mean: 0.0581946 max: 0.5791
smoothSolver:  Solving for Ux, Initial residual = 0.0030321, Final residual = 3.73128e-06, No Iterations 3
smoothSolver:  Solving for Uy, Initial residual = 0.00337291, Final residual = 4.44323e-06, No Iterations 3
DICPCG:  Solving for p, Initial residual = 0.00318872, Final residual = 0.000141283, No Iterations 84
time step continuity errors : sum local = 1.23117e-08, global = -4.94667e-20, cumulative = 4.11235e-20
DICPCG:  Solving for p, Initial residual = 0.00156093, Final residual = 9.14642e-07, No Iterations 208
time step continuity errors : sum local = 7.4277e-11, global = 1.12706e-20, cumulative = 5.23941e-20
ExecutionTime = 8.84 s  ClockTime = 9 s

Time = 0.04625

Courant Number mean: 0.0585265 max: 0.579391
smoothSolver:  Solving for Ux, Initial residual = 0.00298929, Final residual = 3.67952e-06, No Iterations 3
smoothSolver:  Solving for Uy, Initial residual = 0.00332918, Final residual = 4.38389e-06, No Iterations 3
DICPCG:  Solving for p, Initial residual = 0.00316043, Final residual = 0.000139588, No Iterations 84
time step continuity errors : sum local = 1.21674e-08, global = 1.5285e-20, cumulative = 6.76791e-20
DICPCG:  Solving for p, Initial residual = 0.00154788, Final residual = 9.30191e-07, No Iterations 208
time step continuity errors : sum local = 7.5595e-11, global = 2.46706e-20, cumulative = 9.23496e-20
ExecutionTime = 8.96 s  ClockTime = 9 s

Time = 0.046875

Courant Number mean: 0.0588549 max: 0.579677
smoothSolver:  Solving for Ux, Initial residual = 0.00294762, Final residual = 3.6291e-06, No Iterations 3
smoothSolver:  Solving for Uy, Initial residual = 0.00328676, Final residual = 4.32627e-06, No Iterations 3
DICPCG:  Solving for p, Initial residual = 0.00313414, Final residual = 0.000156028, No Iterations 83
time step continuity errors : sum local = 1.34915e-08, global = 1.03767e-20, cumulative = 1.02726e-19
DICPCG:  Solving for p, Initial residual = 0.00154542, Final residual = 9.51836e-07, No Iterations 208
time step continuity errors : sum local = 7.74073e-11, global = 4.48645e-20, cumulative = 1.47591e-19
ExecutionTime = 9.06 s  ClockTime = 9 s

Time = 0.0475

Courant Number mean: 0.0591817 max: 0.579956
smoothSolver:  Solving for Ux, Initial residual = 0.00290697, Final residual = 3.57992e-06, No Iterations 3
smoothSolver:  Solving for Uy, Initial residual = 0.00324558, Final residual = 4.27034e-06, No Iterations 3
DICPCG:  Solving for p, Initial residual = 0.00311803, Final residual = 0.000153969, No Iterations 83
time step continuity errors : sum local = 1.33181e-08, global = -3.91392e-21, cumulative = 1.43677e-19
DICPCG:  Solving for p, Initial residual = 0.00154499, Final residual = 9.75351e-07, No Iterations 208
time step continuity errors : sum local = 7.93703e-11, global = 1.89045e-20, cumulative = 1.62581e-19
ExecutionTime = 9.17 s  ClockTime = 9 s

Time = 0.048125

Courant Number mean: 0.0595062 max: 0.58023
smoothSolver:  Solving for Ux, Initial residual = 0.00286729, Final residual = 3.5322e-06, No Iterations 3
smoothSolver:  Solving for Uy, Initial residual = 0.00320558, Final residual = 4.216e-06, No Iterations 3
DICPCG:  Solving for p, Initial residual = 0.00309364, Final residual = 0.00015171, No Iterations 83
time step continuity errors : sum local = 1.31311e-08, global = 2.54912e-20, cumulative = 1.88073e-19
DICPCG:  Solving for p, Initial residual = 0.00153129, Final residual = 8.59192e-07, No Iterations 209
time step continuity errors : sum local = 6.99794e-11, global = -2.76623e-20, cumulative = 1.6041e-19
ExecutionTime = 9.27 s  ClockTime = 9 s

Time = 0.04875

Courant Number mean: 0.0598279 max: 0.580499
smoothSolver:  Solving for Ux, Initial residual = 0.00282855, Final residual = 3.48574e-06, No Iterations 3
smoothSolver:  Solving for Uy, Initial residual = 0.0031667, Final residual = 4.16322e-06, No Iterations 3
DICPCG:  Solving for p, Initial residual = 0.00306956, Final residual = 0.000149554, No Iterations 83
time step continuity errors : sum local = 1.29506e-08, global = 2.70207e-23, cumulative = 1.60437e-19
DICPCG:  Solving for p, Initial residual = 0.00151879, Final residual = 8.87901e-07, No Iterations 209
time step continuity errors : sum local = 7.23599e-11, global = 8.89556e-22, cumulative = 1.61327e-19
ExecutionTime = 9.38 s  ClockTime = 9 s

Time = 0.049375

Courant Number mean: 0.060147 max: 0.580762
smoothSolver:  Solving for Ux, Initial residual = 0.00279072, Final residual = 3.44045e-06, No Iterations 3
smoothSolver:  Solving for Uy, Initial residual = 0.00312894, Final residual = 4.11191e-06, No Iterations 3
DICPCG:  Solving for p, Initial residual = 0.00304555, Final residual = 0.000147268, No Iterations 83
time step continuity errors : sum local = 1.27613e-08, global = 1.42085e-20, cumulative = 1.75535e-19
DICPCG:  Solving for p, Initial residual = 0.00150695, Final residual = 9.12141e-07, No Iterations 209
time step continuity errors : sum local = 7.43774e-11, global = 9.6198e-22, cumulative = 1.76497e-19
ExecutionTime = 9.48 s  ClockTime = 9 s

Time = 0.05

Courant Number mean: 0.0604633 max: 0.581021
smoothSolver:  Solving for Ux, Initial residual = 0.00275393, Final residual = 3.39627e-06, No Iterations 3
smoothSolver:  Solving for Uy, Initial residual = 0.00309222, Final residual = 4.06203e-06, No Iterations 3
DICPCG:  Solving for p, Initial residual = 0.00302135, Final residual = 0.00014506, No Iterations 83
time step continuity errors : sum local = 1.25773e-08, global = -4.90988e-20, cumulative = 1.27398e-19
DICPCG:  Solving for p, Initial residual = 0.0014942, Final residual = 9.34793e-07, No Iterations 209
time step continuity errors : sum local = 7.62667e-11, global = -7.92831e-20, cumulative = 4.81153e-20
ExecutionTime = 9.59 s  ClockTime = 10 s

Time = 0.050625

Courant Number mean: 0.0607767 max: 0.581274
smoothSolver:  Solving for Ux, Initial residual = 0.00271824, Final residual = 3.35316e-06, No Iterations 3
smoothSolver:  Solving for Uy, Initial residual = 0.0030565, Final residual = 4.01352e-06, No Iterations 3
DICPCG:  Solving for p, Initial residual = 0.00299851, Final residual = 0.000142767, No Iterations 83
time step continuity errors : sum local = 1.23871e-08, global = -1.44159e-20, cumulative = 3.36993e-20
DICPCG:  Solving for p, Initial residual = 0.00148135, Final residual = 9.5091e-07, No Iterations 209
time step continuity errors : sum local = 7.76271e-11, global = -1.56218e-20, cumulative = 1.80775e-20
ExecutionTime = 9.69 s  ClockTime = 10 s

Time = 0.05125

Courant Number mean: 0.0610871 max: 0.581523
smoothSolver:  Solving for Ux, Initial residual = 0.00268351, Final residual = 3.31108e-06, No Iterations 3
smoothSolver:  Solving for Uy, Initial residual = 0.00302171, Final residual = 3.96632e-06, No Iterations 3
DICPCG:  Solving for p, Initial residual = 0.0029759, Final residual = 0.000140991, No Iterations 83
time step continuity errors : sum local = 1.22387e-08, global = -4.81998e-20, cumulative = -3.01223e-20
DICPCG:  Solving for p, Initial residual = 0.00146924, Final residual = 9.67284e-07, No Iterations 209
time step continuity errors : sum local = 7.90091e-11, global = -4.92239e-20, cumulative = -7.93462e-20
ExecutionTime = 9.8 s  ClockTime = 10 s

Time = 0.051875

Courant Number mean: 0.0613947 max: 0.581767
smoothSolver:  Solving for Ux, Initial residual = 0.00264962, Final residual = 3.27002e-06, No Iterations 3
smoothSolver:  Solving for Uy, Initial residual = 0.0029879, Final residual = 3.92037e-06, No Iterations 3
DICPCG:  Solving for p, Initial residual = 0.00295311, Final residual = 0.000138588, No Iterations 83
time step continuity errors : sum local = 1.20398e-08, global = -4.12275e-20, cumulative = -1.20574e-19
DICPCG:  Solving for p, Initial residual = 0.00145713, Final residual = 9.79858e-07, No Iterations 209
time step continuity errors : sum local = 8.00818e-11, global = -1.85062e-20, cumulative = -1.3908e-19
ExecutionTime = 9.91 s  ClockTime = 10 s

Time = 0.0525

Courant Number mean: 0.0616994 max: 0.582006
smoothSolver:  Solving for Ux, Initial residual = 0.00261653, Final residual = 3.22989e-06, No Iterations 3
smoothSolver:  Solving for Uy, Initial residual = 0.00295496, Final residual = 3.87565e-06, No Iterations 3
DICPCG:  Solving for p, Initial residual = 0.00293008, Final residual = 0.000136623, No Iterations 83
time step continuity errors : sum local = 1.18756e-08, global = -1.02353e-20, cumulative = -1.49315e-19
DICPCG:  Solving for p, Initial residual = 0.00144601, Final residual = 9.91914e-07, No Iterations 209
time step continuity errors : sum local = 8.11117e-11, global = -2.00418e-20, cumulative = -1.69357e-19
ExecutionTime = 10.01 s  ClockTime = 10 s

Time = 0.053125

Courant Number mean: 0.0620016 max: 0.582242
smoothSolver:  Solving for Ux, Initial residual = 0.0025842, Final residual = 3.19069e-06, No Iterations 3
smoothSolver:  Solving for Uy, Initial residual = 0.00292287, Final residual = 3.8321e-06, No Iterations 3
DICPCG:  Solving for p, Initial residual = 0.00290762, Final residual = 0.000134647, No Iterations 83
time step continuity errors : sum local = 1.17113e-08, global = -1.36369e-20, cumulative = -1.82994e-19
DICPCG:  Solving for p, Initial residual = 0.00143518, Final residual = 8.4417e-07, No Iterations 210
time step continuity errors : sum local = 6.90687e-11, global = -6.34453e-20, cumulative = -2.46439e-19
ExecutionTime = 10.12 s  ClockTime = 10 s

Time = 0.05375

Courant Number mean: 0.062301 max: 0.582473
smoothSolver:  Solving for Ux, Initial residual = 0.00255266, Final residual = 3.1524e-06, No Iterations 3
smoothSolver:  Solving for Uy, Initial residual = 0.00289162, Final residual = 3.78965e-06, No Iterations 3
DICPCG:  Solving for p, Initial residual = 0.00288482, Final residual = 0.000132695, No Iterations 83
time step continuity errors : sum local = 1.15487e-08, global = 2.77675e-20, cumulative = -2.18672e-19
DICPCG:  Solving for p, Initial residual = 0.00142463, Final residual = 8.45387e-07, No Iterations 210
time step continuity errors : sum local = 6.92067e-11, global = -2.42676e-20, cumulative = -2.42939e-19
ExecutionTime = 10.22 s  ClockTime = 10 s

Time = 0.054375

Courant Number mean: 0.0625977 max: 0.582699
smoothSolver:  Solving for Ux, Initial residual = 0.00252182, Final residual = 3.11495e-06, No Iterations 3
smoothSolver:  Solving for Uy, Initial residual = 0.00286119, Final residual = 3.74831e-06, No Iterations 3
DICPCG:  Solving for p, Initial residual = 0.00286226, Final residual = 0.000131901, No Iterations 83
time step continuity errors : sum local = 1.14807e-08, global = -1.16875e-20, cumulative = -2.54627e-19
DICPCG:  Solving for p, Initial residual = 0.00141505, Final residual = 8.51737e-07, No Iterations 210
time step continuity errors : sum local = 6.97643e-11, global = -2.33529e-20, cumulative = -2.7798e-19
ExecutionTime = 10.33 s  ClockTime = 10 s

Time = 0.055

Courant Number mean: 0.0628917 max: 0.582923
smoothSolver:  Solving for Ux, Initial residual = 0.00249165, Final residual = 3.07829e-06, No Iterations 3
smoothSolver:  Solving for Uy, Initial residual = 0.00283151, Final residual = 3.70802e-06, No Iterations 3
DICPCG:  Solving for p, Initial residual = 0.00284114, Final residual = 0.000128895, No Iterations 83
time step continuity errors : sum local = 1.1232e-08, global = 1.27918e-20, cumulative = -2.65188e-19
DICPCG:  Solving for p, Initial residual = 0.00140373, Final residual = 8.5299e-07, No Iterations 210
time step continuity errors : sum local = 6.99063e-11, global = -2.14686e-20, cumulative = -2.86656e-19
ExecutionTime = 10.43 s  ClockTime = 10 s

Time = 0.055625

Courant Number mean: 0.0631829 max: 0.583142
smoothSolver:  Solving for Ux, Initial residual = 0.00246217, Final residual = 3.04257e-06, No Iterations 3
smoothSolver:  Solving for Uy, Initial residual = 0.0028026, Final residual = 3.66874e-06, No Iterations 3
DICPCG:  Solving for p, Initial residual = 0.00282198, Final residual = 0.000127054, No Iterations 83
time step continuity errors : sum local = 1.10786e-08, global = 2.11279e-20, cumulative = -2.65528e-19
DICPCG:  Solving for p, Initial residual = 0.00139414, Final residual = 8.5332e-07, No Iterations 210
time step continuity errors : sum local = 6.99727e-11, global = 1.68614e-20, cumulative = -2.48667e-19
ExecutionTime = 10.54 s  ClockTime = 11 s

Time = 0.05625

Courant Number mean: 0.0634713 max: 0.583357
smoothSolver:  Solving for Ux, Initial residual = 0.00243333, Final residual = 3.00774e-06, No Iterations 3
smoothSolver:  Solving for Uy, Initial residual = 0.00277443, Final residual = 3.63046e-06, No Iterations 3
DICPCG:  Solving for p, Initial residual = 0.00280401, Final residual = 0.000138979, No Iterations 82
time step continuity errors : sum local = 1.20503e-08, global = 2.33968e-20, cumulative = -2.2527e-19
DICPCG:  Solving for p, Initial residual = 0.00138996, Final residual = 8.49382e-07, No Iterations 210
time step continuity errors : sum local = 6.96906e-11, global = -4.86278e-20, cumulative = -2.73898e-19
ExecutionTime = 10.64 s  ClockTime = 11 s

Time = 0.056875

Courant Number mean: 0.0637573 max: 0.583569
smoothSolver:  Solving for Ux, Initial residual = 0.00240508, Final residual = 2.9737e-06, No Iterations 3
smoothSolver:  Solving for Uy, Initial residual = 0.00274699, Final residual = 3.59314e-06, No Iterations 3
DICPCG:  Solving for p, Initial residual = 0.00279266, Final residual = 0.000137501, No Iterations 82
time step continuity errors : sum local = 1.1926e-08, global = -4.77863e-20, cumulative = -3.21684e-19
DICPCG:  Solving for p, Initial residual = 0.0013913, Final residual = 8.51071e-07, No Iterations 210
time step continuity errors : sum local = 6.98697e-11, global = -1.69027e-20, cumulative = -3.38587e-19
ExecutionTime = 10.75 s  ClockTime = 11 s

Time = 0.0575

Courant Number mean: 0.0640407 max: 0.583777
smoothSolver:  Solving for Ux, Initial residual = 0.00237762, Final residual = 2.94045e-06, No Iterations 3
smoothSolver:  Solving for Uy, Initial residual = 0.00272022, Final residual = 3.55676e-06, No Iterations 3
DICPCG:  Solving for p, Initial residual = 0.00277501, Final residual = 0.000135227, No Iterations 82
time step continuity errors : sum local = 1.17391e-08, global = 1.97216e-20, cumulative = -3.18865e-19
DICPCG:  Solving for p, Initial residual = 0.00138118, Final residual = 8.45666e-07, No Iterations 210
time step continuity errors : sum local = 6.94654e-11, global = 7.86291e-21, cumulative = -3.11003e-19
ExecutionTime = 10.86 s  ClockTime = 11 s

Time = 0.058125

Courant Number mean: 0.0643215 max: 0.583982
smoothSolver:  Solving for Ux, Initial residual = 0.00235084, Final residual = 2.90797e-06, No Iterations 3
smoothSolver:  Solving for Uy, Initial residual = 0.0026941, Final residual = 3.52126e-06, No Iterations 3
DICPCG:  Solving for p, Initial residual = 0.00275755, Final residual = 0.000134521, No Iterations 82
time step continuity errors : sum local = 1.16792e-08, global = -3.83072e-21, cumulative = -3.14833e-19
DICPCG:  Solving for p, Initial residual = 0.00137204, Final residual = 8.4854e-07, No Iterations 210
time step continuity errors : sum local = 6.97448e-11, global = -6.13412e-20, cumulative = -3.76175e-19
ExecutionTime = 10.96 s  ClockTime = 11 s

Time = 0.05875

Courant Number mean: 0.0646002 max: 0.584184
smoothSolver:  Solving for Ux, Initial residual = 0.00232468, Final residual = 2.87619e-06, No Iterations 3
smoothSolver:  Solving for Uy, Initial residual = 0.0026686, Final residual = 3.48664e-06, No Iterations 3
DICPCG:  Solving for p, Initial residual = 0.00273972, Final residual = 0.000132099, No Iterations 82
time step continuity errors : sum local = 1.14798e-08, global = -1.6807e-20, cumulative = -3.92982e-19
DICPCG:  Solving for p, Initial residual = 0.00136213, Final residual = 9.9649e-07, No Iterations 209
time step continuity errors : sum local = 8.19538e-11, global = 1.39703e-20, cumulative = -3.79011e-19
ExecutionTime = 11.07 s  ClockTime = 11 s

Time = 0.059375

Courant Number mean: 0.0648779 max: 0.584382
smoothSolver:  Solving for Ux, Initial residual = 0.00229906, Final residual = 2.84507e-06, No Iterations 3
smoothSolver:  Solving for Uy, Initial residual = 0.00264371, Final residual = 3.45285e-06, No Iterations 3
DICPCG:  Solving for p, Initial residual = 0.00272243, Final residual = 0.000131642, No Iterations 82
time step continuity errors : sum local = 1.14411e-08, global = -3.50548e-20, cumulative = -4.14066e-19
DICPCG:  Solving for p, Initial residual = 0.00135357, Final residual = 9.9357e-07, No Iterations 209
time step continuity errors : sum local = 8.17631e-11, global = 2.33151e-20, cumulative = -3.90751e-19
ExecutionTime = 11.17 s  ClockTime = 11 s

Time = 0.06

Courant Number mean: 0.0651537 max: 0.584578
smoothSolver:  Solving for Ux, Initial residual = 0.00227393, Final residual = 2.81454e-06, No Iterations 3
smoothSolver:  Solving for Uy, Initial residual = 0.00261942, Final residual = 3.41984e-06, No Iterations 3
DICPCG:  Solving for p, Initial residual = 0.00270489, Final residual = 0.000129415, No Iterations 82
time step continuity errors : sum local = 1.12573e-08, global = -1.26146e-21, cumulative = -3.92012e-19
DICPCG:  Solving for p, Initial residual = 0.00134417, Final residual = 9.86323e-07, No Iterations 209
time step continuity errors : sum local = 8.12144e-11, global = 4.22724e-20, cumulative = -3.4974e-19
ExecutionTime = 11.28 s  ClockTime = 11 s

Time = 0.060625

Courant Number mean: 0.0654277 max: 0.58477
smoothSolver:  Solving for Ux, Initial residual = 0.00224931, Final residual = 2.78459e-06, No Iterations 3
smoothSolver:  Solving for Uy, Initial residual = 0.00259567, Final residual = 3.38758e-06, No Iterations 3
DICPCG:  Solving for p, Initial residual = 0.00268825, Final residual = 0.000128855, No Iterations 82
time step continuity errors : sum local = 1.12102e-08, global = 1.57977e-20, cumulative = -3.33942e-19
DICPCG:  Solving for p, Initial residual = 0.00133592, Final residual = 9.83893e-07, No Iterations 209
time step continuity errors : sum local = 8.10612e-11, global = 4.85283e-21, cumulative = -3.29089e-19
ExecutionTime = 11.38 s  ClockTime = 11 s

Time = 0.06125

Courant Number mean: 0.0656997 max: 0.584959
smoothSolver:  Solving for Ux, Initial residual = 0.00222518, Final residual = 2.75518e-06, No Iterations 3
smoothSolver:  Solving for Uy, Initial residual = 0.00257249, Final residual = 3.35608e-06, No Iterations 3
DICPCG:  Solving for p, Initial residual = 0.00267164, Final residual = 0.000126722, No Iterations 82
time step continuity errors : sum local = 1.1034e-08, global = 3.06724e-20, cumulative = -2.98417e-19
DICPCG:  Solving for p, Initial residual = 0.00132646, Final residual = 9.78272e-07, No Iterations 209
time step continuity errors : sum local = 8.06424e-11, global = -3.61788e-20, cumulative = -3.34596e-19
ExecutionTime = 11.49 s  ClockTime = 12 s

Time = 0.061875

Courant Number mean: 0.0659696 max: 0.585145
smoothSolver:  Solving for Ux, Initial residual = 0.00220151, Final residual = 2.7263e-06, No Iterations 3
smoothSolver:  Solving for Uy, Initial residual = 0.00254983, Final residual = 3.3253e-06, No Iterations 3
DICPCG:  Solving for p, Initial residual = 0.00265519, Final residual = 0.000126128, No Iterations 82
time step continuity errors : sum local = 1.09841e-08, global = 4.02304e-20, cumulative = -2.94366e-19
DICPCG:  Solving for p, Initial residual = 0.0013181, Final residual = 9.73061e-07, No Iterations 209
time step continuity errors : sum local = 8.026e-11, global = -5.39993e-20, cumulative = -3.48365e-19
ExecutionTime = 11.59 s  ClockTime = 12 s

Time = 0.0625

Courant Number mean: 0.0662376 max: 0.585329
smoothSolver:  Solving for Ux, Initial residual = 0.0021783, Final residual = 2.69793e-06, No Iterations 3
smoothSolver:  Solving for Uy, Initial residual = 0.00252771, Final residual = 3.29523e-06, No Iterations 3
DICPCG:  Solving for p, Initial residual = 0.00263865, Final residual = 0.000124305, No Iterations 82
time step continuity errors : sum local = 1.08336e-08, global = 4.26492e-20, cumulative = -3.05716e-19
DICPCG:  Solving for p, Initial residual = 0.00131085, Final residual = 9.693e-07, No Iterations 209
time step continuity errors : sum local = 7.99967e-11, global = 1.5863e-20, cumulative = -2.89853e-19
ExecutionTime = 11.7 s  ClockTime = 12 s

Time = 0.063125

Courant Number mean: 0.0665037 max: 0.58551
smoothSolver:  Solving for Ux, Initial residual = 0.00215553, Final residual = 2.67008e-06, No Iterations 3
smoothSolver:  Solving for Uy, Initial residual = 0.00250609, Final residual = 3.26586e-06, No Iterations 3
DICPCG:  Solving for p, Initial residual = 0.00262171, Final residual = 0.000123933, No Iterations 82
time step continuity errors : sum local = 1.08022e-08, global = 6.12012e-20, cumulative = -2.28651e-19
DICPCG:  Solving for p, Initial residual = 0.001304, Final residual = 9.57626e-07, No Iterations 209
time step continuity errors : sum local = 7.90813e-11, global = 4.45658e-20, cumulative = -1.84086e-19
ExecutionTime = 11.8 s  ClockTime = 12 s

Time = 0.06375

Courant Number mean: 0.0667678 max: 0.585688
smoothSolver:  Solving for Ux, Initial residual = 0.0021332, Final residual = 2.64285e-06, No Iterations 3
smoothSolver:  Solving for Uy, Initial residual = 0.00248494, Final residual = 3.23714e-06, No Iterations 3
DICPCG:  Solving for p, Initial residual = 0.00260537, Final residual = 0.000122116, No Iterations 82
time step continuity errors : sum local = 1.06524e-08, global = -5.62413e-20, cumulative = -2.40327e-19
DICPCG:  Solving for p, Initial residual = 0.00129605, Final residual = 9.50551e-07, No Iterations 209
time step continuity errors : sum local = 7.85425e-11, global = -3.68056e-20, cumulative = -2.77132e-19
ExecutionTime = 11.9 s  ClockTime = 12 s

Time = 0.064375

Courant Number mean: 0.0670298 max: 0.585864
smoothSolver:  Solving for Ux, Initial residual = 0.0021113, Final residual = 2.61627e-06, No Iterations 3
smoothSolver:  Solving for Uy, Initial residual = 0.00246428, Final residual = 3.20907e-06, No Iterations 3
DICPCG:  Solving for p, Initial residual = 0.00259088, Final residual = 0.000121679, No Iterations 82
time step continuity errors : sum local = 1.06158e-08, global = -3.00018e-20, cumulative = -3.07134e-19
DICPCG:  Solving for p, Initial residual = 0.00128909, Final residual = 9.42006e-07, No Iterations 209
time step continuity errors : sum local = 7.78819e-11, global = -3.5798e-21, cumulative = -3.10714e-19
ExecutionTime = 12.01 s  ClockTime = 12 s

Time = 0.065

Courant Number mean: 0.0672898 max: 0.586037
smoothSolver:  Solving for Ux, Initial residual = 0.00208981, Final residual = 2.59028e-06, No Iterations 3
smoothSolver:  Solving for Uy, Initial residual = 0.00244407, Final residual = 3.18162e-06, No Iterations 3
DICPCG:  Solving for p, Initial residual = 0.00257673, Final residual = 0.00011983, No Iterations 82
time step continuity errors : sum local = 1.0463e-08, global = 9.35339e-22, cumulative = -3.09779e-19
DICPCG:  Solving for p, Initial residual = 0.00128191, Final residual = 9.3256e-07, No Iterations 209
time step continuity errors : sum local = 7.7144e-11, global = 4.79042e-20, cumulative = -2.61875e-19
ExecutionTime = 12.12 s  ClockTime = 12 s

Time = 0.065625

Courant Number mean: 0.0675478 max: 0.586208
smoothSolver:  Solving for Ux, Initial residual = 0.00206884, Final residual = 2.56484e-06, No Iterations 3
smoothSolver:  Solving for Uy, Initial residual = 0.00242431, Final residual = 3.15478e-06, No Iterations 3
DICPCG:  Solving for p, Initial residual = 0.00256318, Final residual = 0.000119504, No Iterations 82
time step continuity errors : sum local = 1.04354e-08, global = 9.38663e-21, cumulative = -2.52488e-19
DICPCG:  Solving for p, Initial residual = 0.00127568, Final residual = 9.24652e-07, No Iterations 209
time step continuity errors : sum local = 7.65325e-11, global = 2.59617e-20, cumulative = -2.26526e-19
ExecutionTime = 12.22 s  ClockTime = 12 s

Time = 0.06625

Courant Number mean: 0.0678038 max: 0.586376
smoothSolver:  Solving for Ux, Initial residual = 0.00204832, Final residual = 2.53989e-06, No Iterations 3
smoothSolver:  Solving for Uy, Initial residual = 0.002405, Final residual = 3.1285e-06, No Iterations 3
DICPCG:  Solving for p, Initial residual = 0.0025501, Final residual = 0.000118091, No Iterations 82
time step continuity errors : sum local = 1.03185e-08, global = -4.25225e-20, cumulative = -2.69049e-19
DICPCG:  Solving for p, Initial residual = 0.00126844, Final residual = 9.16336e-07, No Iterations 209
time step continuity errors : sum local = 7.58849e-11, global = -2.84675e-21, cumulative = -2.71896e-19
ExecutionTime = 12.33 s  ClockTime = 12 s

Time = 0.066875

Courant Number mean: 0.0680577 max: 0.586542
smoothSolver:  Solving for Ux, Initial residual = 0.00202819, Final residual = 2.5154e-06, No Iterations 3
smoothSolver:  Solving for Uy, Initial residual = 0.00238609, Final residual = 3.1028e-06, No Iterations 3
DICPCG:  Solving for p, Initial residual = 0.00253693, Final residual = 0.000117529, No Iterations 82
time step continuity errors : sum local = 1.02715e-08, global = 4.00409e-20, cumulative = -2.31855e-19
DICPCG:  Solving for p, Initial residual = 0.00126172, Final residual = 9.07388e-07, No Iterations 209
time step continuity errors : sum local = 7.51848e-11, global = -2.6622e-20, cumulative = -2.58477e-19
ExecutionTime = 12.43 s  ClockTime = 12 s

Time = 0.0675

Courant Number mean: 0.0683099 max: 0.586706
smoothSolver:  Solving for Ux, Initial residual = 0.00200846, Final residual = 2.49134e-06, No Iterations 3
smoothSolver:  Solving for Uy, Initial residual = 0.00236758, Final residual = 3.07765e-06, No Iterations 3
DICPCG:  Solving for p, Initial residual = 0.0025235, Final residual = 0.000116064, No Iterations 82
time step continuity errors : sum local = 1.01499e-08, global = 9.06692e-21, cumulative = -2.4941e-19
DICPCG:  Solving for p, Initial residual = 0.00125462, Final residual = 8.96435e-07, No Iterations 209
time step continuity errors : sum local = 7.43169e-11, global = -8.76013e-21, cumulative = -2.5817e-19
ExecutionTime = 12.53 s  ClockTime = 13 s

Time = 0.068125

Courant Number mean: 0.0685599 max: 0.586868
smoothSolver:  Solving for Ux, Initial residual = 0.0019891, Final residual = 2.46769e-06, No Iterations 3
smoothSolver:  Solving for Uy, Initial residual = 0.00234948, Final residual = 3.05307e-06, No Iterations 3
DICPCG:  Solving for p, Initial residual = 0.00251084, Final residual = 0.000115283, No Iterations 82
[...]
time step continuity errors : sum local = 1.08988e-10, global = -3.64993e-21, cumulative = -6.84412e-19
ExecutionTime = 273.35 s  ClockTime = 277 s

Time = 2.98375

Courant Number mean: 0.175788 max: 0.612179
smoothSolver:  Solving for Ux, Initial residual = 7.11026e-07, Final residual = 7.11026e-07, No Iterations 0
smoothSolver:  Solving for Uy, Initial residual = 1.17992e-06, Final residual = 1.17992e-06, No Iterations 0
DICPCG:  Solving for p, Initial residual = 1.74525e-06, Final residual = 9.37707e-07, No Iterations 5
time step continuity errors : sum local = 1.08773e-10, global = -8.48404e-20, cumulative = -7.69252e-19
DICPCG:  Solving for p, Initial residual = 1.31488e-06, Final residual = 8.50275e-07, No Iterations 10
time step continuity errors : sum local = 9.94644e-11, global = -3.4268e-20, cumulative = -8.0352e-19
ExecutionTime = 273.36 s  ClockTime = 277 s

Time = 2.98437

Courant Number mean: 0.175788 max: 0.612179
smoothSolver:  Solving for Ux, Initial residual = 7.10072e-07, Final residual = 7.10072e-07, No Iterations 0
smoothSolver:  Solving for Uy, Initial residual = 1.17836e-06, Final residual = 1.17836e-06, No Iterations 0
DICPCG:  Solving for p, Initial residual = 1.48663e-06, Final residual = 9.66928e-07, No Iterations 8
time step continuity errors : sum local = 1.119e-10, global = 7.65963e-20, cumulative = -7.26924e-19
DICPCG:  Solving for p, Initial residual = 1.37375e-06, Final residual = 9.28741e-07, No Iterations 6
time step continuity errors : sum local = 1.07926e-10, global = 3.8229e-21, cumulative = -7.23101e-19
ExecutionTime = 273.38 s  ClockTime = 277 s

Time = 2.985

Courant Number mean: 0.175788 max: 0.612179
smoothSolver:  Solving for Ux, Initial residual = 7.09364e-07, Final residual = 7.09364e-07, No Iterations 0
smoothSolver:  Solving for Uy, Initial residual = 1.17722e-06, Final residual = 1.17722e-06, No Iterations 0
DICPCG:  Solving for p, Initial residual = 1.89281e-06, Final residual = 9.60498e-07, No Iterations 11
time step continuity errors : sum local = 1.11238e-10, global = 8.723e-20, cumulative = -6.35871e-19
DICPCG:  Solving for p, Initial residual = 1.29283e-06, Final residual = 8.34575e-07, No Iterations 6
time step continuity errors : sum local = 9.78059e-11, global = -2.51213e-21, cumulative = -6.38383e-19
ExecutionTime = 273.39 s  ClockTime = 277 s

Time = 2.98562

Courant Number mean: 0.175788 max: 0.612179
smoothSolver:  Solving for Ux, Initial residual = 7.08452e-07, Final residual = 7.08452e-07, No Iterations 0
smoothSolver:  Solving for Uy, Initial residual = 1.17577e-06, Final residual = 1.17577e-06, No Iterations 0
DICPCG:  Solving for p, Initial residual = 1.67978e-06, Final residual = 9.00428e-07, No Iterations 11
time step continuity errors : sum local = 1.04809e-10, global = -5.36248e-20, cumulative = -6.92008e-19
DICPCG:  Solving for p, Initial residual = 1.199e-06, Final residual = 8.15428e-07, No Iterations 3
time step continuity errors : sum local = 9.57971e-11, global = 3.90239e-20, cumulative = -6.52984e-19
ExecutionTime = 273.4 s  ClockTime = 277 s

Time = 2.98625

Courant Number mean: 0.175788 max: 0.612179
smoothSolver:  Solving for Ux, Initial residual = 7.07644e-07, Final residual = 7.07644e-07, No Iterations 0
smoothSolver:  Solving for Uy, Initial residual = 1.17429e-06, Final residual = 1.17429e-06, No Iterations 0
DICPCG:  Solving for p, Initial residual = 1.66237e-06, Final residual = 8.72624e-07, No Iterations 12
time step continuity errors : sum local = 1.01806e-10, global = 1.00268e-19, cumulative = -5.52717e-19
DICPCG:  Solving for p, Initial residual = 1.14234e-06, Final residual = 9.17845e-07, No Iterations 1
time step continuity errors : sum local = 1.06647e-10, global = -3.93993e-20, cumulative = -5.92116e-19
ExecutionTime = 273.42 s  ClockTime = 277 s

Time = 2.98687

Courant Number mean: 0.175788 max: 0.612179
smoothSolver:  Solving for Ux, Initial residual = 7.06746e-07, Final residual = 7.06746e-07, No Iterations 0
smoothSolver:  Solving for Uy, Initial residual = 1.17309e-06, Final residual = 1.17309e-06, No Iterations 0
DICPCG:  Solving for p, Initial residual = 1.70825e-06, Final residual = 8.88991e-07, No Iterations 15
time step continuity errors : sum local = 1.03499e-10, global = -4.9448e-20, cumulative = -6.41564e-19
DICPCG:  Solving for p, Initial residual = 1.15728e-06, Final residual = 7.91119e-07, No Iterations 3
time step continuity errors : sum local = 9.3076e-11, global = -8.27228e-20, cumulative = -7.24287e-19
ExecutionTime = 273.43 s  ClockTime = 277 s

Time = 2.9875

Courant Number mean: 0.175788 max: 0.612179
smoothSolver:  Solving for Ux, Initial residual = 7.05822e-07, Final residual = 7.05822e-07, No Iterations 0
smoothSolver:  Solving for Uy, Initial residual = 1.17134e-06, Final residual = 1.17134e-06, No Iterations 0
DICPCG:  Solving for p, Initial residual = 1.65746e-06, Final residual = 9.7477e-07, No Iterations 7
time step continuity errors : sum local = 1.12666e-10, global = 2.11403e-20, cumulative = -7.03147e-19
DICPCG:  Solving for p, Initial residual = 1.30061e-06, Final residual = 9.66707e-07, No Iterations 12
time step continuity errors : sum local = 1.11847e-10, global = -1.02801e-19, cumulative = -8.05947e-19
ExecutionTime = 273.44 s  ClockTime = 277 s

Time = 2.98812

Courant Number mean: 0.175788 max: 0.612179
smoothSolver:  Solving for Ux, Initial residual = 7.04848e-07, Final residual = 7.04848e-07, No Iterations 0
smoothSolver:  Solving for Uy, Initial residual = 1.16992e-06, Final residual = 1.16992e-06, No Iterations 0
DICPCG:  Solving for p, Initial residual = 1.8689e-06, Final residual = 8.82427e-07, No Iterations 6
time step continuity errors : sum local = 1.02825e-10, global = 4.80534e-20, cumulative = -7.57894e-19
DICPCG:  Solving for p, Initial residual = 1.2384e-06, Final residual = 8.99951e-07, No Iterations 10
time step continuity errors : sum local = 1.04689e-10, global = 1.04034e-19, cumulative = -6.5386e-19
ExecutionTime = 273.46 s  ClockTime = 278 s

Time = 2.98875

Courant Number mean: 0.175788 max: 0.612179
smoothSolver:  Solving for Ux, Initial residual = 7.03885e-07, Final residual = 7.03885e-07, No Iterations 0
smoothSolver:  Solving for Uy, Initial residual = 1.16862e-06, Final residual = 1.16862e-06, No Iterations 0
DICPCG:  Solving for p, Initial residual = 1.57728e-06, Final residual = 8.72059e-07, No Iterations 2
time step continuity errors : sum local = 1.01696e-10, global = -2.28267e-20, cumulative = -6.76687e-19
DICPCG:  Solving for p, Initial residual = 1.28548e-06, Final residual = 7.91257e-07, No Iterations 10
time step continuity errors : sum local = 9.312e-11, global = 2.86316e-20, cumulative = -6.48055e-19
ExecutionTime = 273.47 s  ClockTime = 278 s

Time = 2.98937

Courant Number mean: 0.175788 max: 0.612179
smoothSolver:  Solving for Ux, Initial residual = 7.03057e-07, Final residual = 7.03057e-07, No Iterations 0
smoothSolver:  Solving for Uy, Initial residual = 1.16711e-06, Final residual = 1.16711e-06, No Iterations 0
DICPCG:  Solving for p, Initial residual = 1.3375e-06, Final residual = 9.62775e-07, No Iterations 5
time step continuity errors : sum local = 1.11513e-10, global = 4.01356e-20, cumulative = -6.0792e-19
DICPCG:  Solving for p, Initial residual = 1.32345e-06, Final residual = 8.79448e-07, No Iterations 10
time step continuity errors : sum local = 1.02464e-10, global = -5.18756e-20, cumulative = -6.59795e-19
ExecutionTime = 273.48 s  ClockTime = 278 s

Time = 2.99

Courant Number mean: 0.175789 max: 0.612179
smoothSolver:  Solving for Ux, Initial residual = 7.02243e-07, Final residual = 7.02243e-07, No Iterations 0
smoothSolver:  Solving for Uy, Initial residual = 1.16612e-06, Final residual = 1.16612e-06, No Iterations 0
DICPCG:  Solving for p, Initial residual = 1.58006e-06, Final residual = 8.33169e-07, No Iterations 11
time step continuity errors : sum local = 9.75692e-11, global = 3.5226e-20, cumulative = -6.24569e-19
DICPCG:  Solving for p, Initial residual = 1.16748e-06, Final residual = 9.80103e-07, No Iterations 6
time step continuity errors : sum local = 1.132e-10, global = -9.44772e-20, cumulative = -7.19047e-19
ExecutionTime = 273.5 s  ClockTime = 278 s

Time = 2.99062

Courant Number mean: 0.175789 max: 0.612179
smoothSolver:  Solving for Ux, Initial residual = 7.01386e-07, Final residual = 7.01386e-07, No Iterations 0
smoothSolver:  Solving for Uy, Initial residual = 1.16454e-06, Final residual = 1.16454e-06, No Iterations 0
DICPCG:  Solving for p, Initial residual = 1.98376e-06, Final residual = 9.75085e-07, No Iterations 10
time step continuity errors : sum local = 1.12739e-10, global = -1.51407e-20, cumulative = -7.34187e-19
DICPCG:  Solving for p, Initial residual = 1.25991e-06, Final residual = 9.05328e-07, No Iterations 7
time step continuity errors : sum local = 1.05189e-10, global = -4.75641e-20, cumulative = -7.81751e-19
ExecutionTime = 273.51 s  ClockTime = 278 s

Time = 2.99125

Courant Number mean: 0.175789 max: 0.612179
smoothSolver:  Solving for Ux, Initial residual = 7.00465e-07, Final residual = 7.00465e-07, No Iterations 0
smoothSolver:  Solving for Uy, Initial residual = 1.1631e-06, Final residual = 1.1631e-06, No Iterations 0
DICPCG:  Solving for p, Initial residual = 1.77071e-06, Final residual = 9.36574e-07, No Iterations 13
time step continuity errors : sum local = 1.08616e-10, global = -3.90822e-20, cumulative = -8.20834e-19
DICPCG:  Solving for p, Initial residual = 1.18015e-06, Final residual = 9.50498e-07, No Iterations 1
time step continuity errors : sum local = 1.10189e-10, global = -3.7516e-20, cumulative = -8.5835e-19
ExecutionTime = 273.52 s  ClockTime = 278 s

Time = 2.99187

Courant Number mean: 0.175789 max: 0.612179
smoothSolver:  Solving for Ux, Initial residual = 6.99632e-07, Final residual = 6.99632e-07, No Iterations 0
smoothSolver:  Solving for Uy, Initial residual = 1.16182e-06, Final residual = 1.16182e-06, No Iterations 0
DICPCG:  Solving for p, Initial residual = 1.76004e-06, Final residual = 8.42498e-07, No Iterations 13
time step continuity errors : sum local = 9.845e-11, global = 2.55422e-20, cumulative = -8.32807e-19
DICPCG:  Solving for p, Initial residual = 1.08438e-06, Final residual = 7.62699e-07, No Iterations 1
time step continuity errors : sum local = 8.99435e-11, global = 1.46625e-19, cumulative = -6.86182e-19
ExecutionTime = 273.54 s  ClockTime = 278 s

Time = 2.9925

Courant Number mean: 0.175789 max: 0.612179
smoothSolver:  Solving for Ux, Initial residual = 6.98875e-07, Final residual = 6.98875e-07, No Iterations 0
smoothSolver:  Solving for Uy, Initial residual = 1.16049e-06, Final residual = 1.16049e-06, No Iterations 0
DICPCG:  Solving for p, Initial residual = 1.52084e-06, Final residual = 8.72458e-07, No Iterations 10
time step continuity errors : sum local = 1.01879e-10, global = 7.41179e-20, cumulative = -6.12064e-19
DICPCG:  Solving for p, Initial residual = 1.16898e-06, Final residual = 7.83514e-07, No Iterations 9
time step continuity errors : sum local = 9.2212e-11, global = -1.16945e-19, cumulative = -7.29009e-19
ExecutionTime = 273.55 s  ClockTime = 278 s

Time = 2.99312

Courant Number mean: 0.175789 max: 0.612179
smoothSolver:  Solving for Ux, Initial residual = 6.97836e-07, Final residual = 6.97836e-07, No Iterations 0
smoothSolver:  Solving for Uy, Initial residual = 1.15897e-06, Final residual = 1.15897e-06, No Iterations 0
DICPCG:  Solving for p, Initial residual = 1.49132e-06, Final residual = 9.39731e-07, No Iterations 13
time step continuity errors : sum local = 1.09035e-10, global = -1.30812e-20, cumulative = -7.42091e-19
DICPCG:  Solving for p, Initial residual = 1.16879e-06, Final residual = 9.54448e-07, No Iterations 3
time step continuity errors : sum local = 1.10603e-10, global = 6.57181e-20, cumulative = -6.76372e-19
ExecutionTime = 273.57 s  ClockTime = 278 s

Time = 2.99375

Courant Number mean: 0.175789 max: 0.612179
smoothSolver:  Solving for Ux, Initial residual = 6.97002e-07, Final residual = 6.97002e-07, No Iterations 0
smoothSolver:  Solving for Uy, Initial residual = 1.15755e-06, Final residual = 1.15755e-06, No Iterations 0
DICPCG:  Solving for p, Initial residual = 1.82053e-06, Final residual = 9.91469e-07, No Iterations 12
time step continuity errors : sum local = 1.14441e-10, global = 5.46314e-20, cumulative = -6.21741e-19
DICPCG:  Solving for p, Initial residual = 1.33788e-06, Final residual = 9.65817e-07, No Iterations 3
time step continuity errors : sum local = 1.1167e-10, global = -2.48819e-20, cumulative = -6.46623e-19
ExecutionTime = 273.58 s  ClockTime = 278 s

Time = 2.99437

Courant Number mean: 0.175789 max: 0.612179
smoothSolver:  Solving for Ux, Initial residual = 6.96082e-07, Final residual = 6.96082e-07, No Iterations 0
smoothSolver:  Solving for Uy, Initial residual = 1.15648e-06, Final residual = 1.15648e-06, No Iterations 0
DICPCG:  Solving for p, Initial residual = 1.88365e-06, Final residual = 9.84634e-07, No Iterations 14
time step continuity errors : sum local = 1.13811e-10, global = -9.30536e-21, cumulative = -6.55928e-19
DICPCG:  Solving for p, Initial residual = 1.28739e-06, Final residual = 9.20783e-07, No Iterations 2
time step continuity errors : sum local = 1.06982e-10, global = 3.65239e-20, cumulative = -6.19404e-19
ExecutionTime = 273.59 s  ClockTime = 278 s

Time = 2.995

Courant Number mean: 0.175789 max: 0.612179
smoothSolver:  Solving for Ux, Initial residual = 6.95391e-07, Final residual = 6.95391e-07, No Iterations 0
smoothSolver:  Solving for Uy, Initial residual = 1.15441e-06, Final residual = 1.15441e-06, No Iterations 0
DICPCG:  Solving for p, Initial residual = 1.83217e-06, Final residual = 9.38717e-07, No Iterations 11
time step continuity errors : sum local = 1.08777e-10, global = -5.8822e-20, cumulative = -6.78226e-19
DICPCG:  Solving for p, Initial residual = 1.24572e-06, Final residual = 9.71853e-07, No Iterations 6
time step continuity errors : sum local = 1.12404e-10, global = -1.04457e-19, cumulative = -7.82683e-19
ExecutionTime = 273.6 s  ClockTime = 278 s

Time = 2.99562

Courant Number mean: 0.175789 max: 0.612179
smoothSolver:  Solving for Ux, Initial residual = 6.94265e-07, Final residual = 6.94265e-07, No Iterations 0
smoothSolver:  Solving for Uy, Initial residual = 1.1536e-06, Final residual = 1.1536e-06, No Iterations 0
DICPCG:  Solving for p, Initial residual = 1.83639e-06, Final residual = 8.73849e-07, No Iterations 13
time step continuity errors : sum local = 1.01855e-10, global = 2.63872e-20, cumulative = -7.56296e-19
DICPCG:  Solving for p, Initial residual = 1.08169e-06, Final residual = 8.22656e-07, No Iterations 1
time step continuity errors : sum local = 9.63737e-11, global = -1.80617e-20, cumulative = -7.74357e-19
ExecutionTime = 273.62 s  ClockTime = 278 s

Time = 2.99625

Courant Number mean: 0.175789 max: 0.612179
smoothSolver:  Solving for Ux, Initial residual = 6.93574e-07, Final residual = 6.93574e-07, No Iterations 0
smoothSolver:  Solving for Uy, Initial residual = 1.15186e-06, Final residual = 1.15186e-06, No Iterations 0
DICPCG:  Solving for p, Initial residual = 1.57565e-06, Final residual = 8.46992e-07, No Iterations 10
time step continuity errors : sum local = 9.89638e-11, global = -1.03852e-19, cumulative = -8.7821e-19
DICPCG:  Solving for p, Initial residual = 1.15635e-06, Final residual = 9.05534e-07, No Iterations 5
time step continuity errors : sum local = 1.05239e-10, global = -7.45572e-20, cumulative = -9.52767e-19
ExecutionTime = 273.63 s  ClockTime = 278 s

Time = 2.99687

Courant Number mean: 0.175789 max: 0.612179
smoothSolver:  Solving for Ux, Initial residual = 6.92661e-07, Final residual = 6.92661e-07, No Iterations 0
smoothSolver:  Solving for Uy, Initial residual = 1.1509e-06, Final residual = 1.1509e-06, No Iterations 0
DICPCG:  Solving for p, Initial residual = 1.72663e-06, Final residual = 6.45882e-07, No Iterations 13
time step continuity errors : sum local = 7.73467e-11, global = 8.77561e-21, cumulative = -9.43991e-19
DICPCG:  Solving for p, Initial residual = 8.51923e-07, Final residual = 8.51923e-07, No Iterations 0
time step continuity errors : sum local = 9.93934e-11, global = -4.50682e-20, cumulative = -9.89059e-19
ExecutionTime = 273.64 s  ClockTime = 278 s

Time = 2.9975

Courant Number mean: 0.175789 max: 0.61218
smoothSolver:  Solving for Ux, Initial residual = 6.9191e-07, Final residual = 6.9191e-07, No Iterations 0
smoothSolver:  Solving for Uy, Initial residual = 1.1492e-06, Final residual = 1.1492e-06, No Iterations 0
DICPCG:  Solving for p, Initial residual = 1.70579e-06, Final residual = 9.81e-07, No Iterations 12
time step continuity errors : sum local = 1.13247e-10, global = -7.49806e-20, cumulative = -1.06404e-18
DICPCG:  Solving for p, Initial residual = 1.25985e-06, Final residual = 9.80141e-07, No Iterations 1
time step continuity errors : sum local = 1.1314e-10, global = -1.90503e-20, cumulative = -1.08309e-18
ExecutionTime = 273.66 s  ClockTime = 278 s

Time = 2.99812

Courant Number mean: 0.175789 max: 0.61218
smoothSolver:  Solving for Ux, Initial residual = 6.90864e-07, Final residual = 6.90864e-07, No Iterations 0
smoothSolver:  Solving for Uy, Initial residual = 1.14822e-06, Final residual = 1.14822e-06, No Iterations 0
DICPCG:  Solving for p, Initial residual = 1.88354e-06, Final residual = 8.30991e-07, No Iterations 17
time step continuity errors : sum local = 9.70784e-11, global = 2.63373e-20, cumulative = -1.05675e-18
DICPCG:  Solving for p, Initial residual = 1.04819e-06, Final residual = 9.28506e-07, No Iterations 1
time step continuity errors : sum local = 1.07508e-10, global = 7.55439e-20, cumulative = -9.81209e-19
ExecutionTime = 273.68 s  ClockTime = 278 s

Time = 2.99875

Courant Number mean: 0.175789 max: 0.61218
smoothSolver:  Solving for Ux, Initial residual = 6.90161e-07, Final residual = 6.90161e-07, No Iterations 0
smoothSolver:  Solving for Uy, Initial residual = 1.14609e-06, Final residual = 1.14609e-06, No Iterations 0
DICPCG:  Solving for p, Initial residual = 1.69073e-06, Final residual = 9.93771e-07, No Iterations 8
time step continuity errors : sum local = 1.14687e-10, global = -1.04522e-19, cumulative = -1.08573e-18
DICPCG:  Solving for p, Initial residual = 1.3625e-06, Final residual = 9.74241e-07, No Iterations 7
time step continuity errors : sum local = 1.12486e-10, global = -7.12995e-20, cumulative = -1.15703e-18
ExecutionTime = 273.69 s  ClockTime = 278 s

Time = 2.99937

Courant Number mean: 0.175789 max: 0.61218
smoothSolver:  Solving for Ux, Initial residual = 6.8902e-07, Final residual = 6.8902e-07, No Iterations 0
smoothSolver:  Solving for Uy, Initial residual = 1.1455e-06, Final residual = 1.1455e-06, No Iterations 0
DICPCG:  Solving for p, Initial residual = 1.94084e-06, Final residual = 9.96465e-07, No Iterations 14
time step continuity errors : sum local = 1.15017e-10, global = 5.05065e-21, cumulative = -1.15198e-18
DICPCG:  Solving for p, Initial residual = 1.25782e-06, Final residual = 8.47612e-07, No Iterations 1
time step continuity errors : sum local = 9.90778e-11, global = -2.25416e-20, cumulative = -1.17452e-18
ExecutionTime = 273.71 s  ClockTime = 278 s

Time = 3

Courant Number mean: 0.175789 max: 0.61218
smoothSolver:  Solving for Ux, Initial residual = 6.88368e-07, Final residual = 6.88368e-07, No Iterations 0
smoothSolver:  Solving for Uy, Initial residual = 1.14371e-06, Final residual = 1.14371e-06, No Iterations 0
DICPCG:  Solving for p, Initial residual = 1.61881e-06, Final residual = 7.28426e-07, No Iterations 14
time step continuity errors : sum local = 8.63221e-11, global = -4.33206e-20, cumulative = -1.21784e-18
DICPCG:  Solving for p, Initial residual = 1.00759e-06, Final residual = 9.5388e-07, No Iterations 1
time step continuity errors : sum local = 1.10422e-10, global = -8.36162e-20, cumulative = -1.30146e-18
ExecutionTime = 273.77 s  ClockTime = 278 s

End

