/*---------------------------------------------------------------------------*\
  =========                 |
  \\      /  F ield         | OpenFOAM: The Open Source CFD Toolbox
   \\    /   O peration     | Website:  https://openfoam.org
    \\  /    A nd           | Version:  7
     \\/     M anipulation  |
\*---------------------------------------------------------------------------*/
Build  : 7
Exec   : reconstructPar
Date   : Mar 04 2025
Time   : 15:06:25
Host   : "c206-025.frontera.tacc.utexas.edu"
PID    : 138094
I/O    : uncollated
Case   : /work2/10249/ctshep3141/frontera/coe347/COE-347-Open-Foam/of-project-2/Re-110/medium/large
nProcs : 1
sigFpe : Enabling floating point exception trapping (FOAM_SIGFPE).
fileModificationChecking : Monitoring run-time modified files using timeStampMaster (fileModificationSkew 10)
allowSystemOperations : Allowing user-supplied system call operations

// * * * * * * * * * * * * * * * * * * * * * * * * * * * * * * * * * * * * * //
Create time

--> FOAM Warning : 
    From function entry::New(dictionary&, Istream&)
    in file db/dictionary/entry/entryIO.C at line 144
    Reading /work2/10249/ctshep3141/frontera/coe347/COE-347-Open-Foam/of-project-2/Re-110/medium/large/system/probes
    found on line 26 the punctuation token '/'
    expected either } or EOF
--> FOAM Warning : 
    From function entry::New(dictionary&, Istream&)
    in file db/dictionary/entry/entryIO.C at line 144
    Reading /work2/10249/ctshep3141/frontera/coe347/COE-347-Open-Foam/of-project-2/Re-110/medium/large/system/probes
    found on line 26 the punctuation token '/'
    expected either } or EOF
--> FOAM Warning : 
    From function entry::New(dictionary&, Istream&)
    in file db/dictionary/entry/entryIO.C at line 144
    Reading /work2/10249/ctshep3141/frontera/coe347/COE-347-Open-Foam/of-project-2/Re-110/medium/large/system/probes
    found on line 26 the punctuation token '/'
    expected either } or EOF
--> FOAM Warning : 
    From function entry::New(dictionary&, Istream&)
    in file db/dictionary/entry/entryIO.C at line 144
    Reading /work2/10249/ctshep3141/frontera/coe347/COE-347-Open-Foam/of-project-2/Re-110/medium/large/system/probes
    found on line 26 the punctuation token '/'
    expected either } or EOF
--> FOAM Warning : 
    From function entry::New(dictionary&, Istream&)
    in file db/dictionary/entry/entryIO.C at line 144
    Reading /work2/10249/ctshep3141/frontera/coe347/COE-347-Open-Foam/of-project-2/Re-110/medium/large/system/probes
    found on line 26 the punctuation token '/'
    expected either } or EOF
--> FOAM Warning : 
    From function entry::New(dictionary&, Istream&)
    in file db/dictionary/entry/entryIO.C at line 144
    Reading /work2/10249/ctshep3141/frontera/coe347/COE-347-Open-Foam/of-project-2/Re-110/medium/large/system/probes
    found on line 26 the punctuation token '/'
    expected either } or EOF
--> FOAM Warning : 
    From function entry::New(dictionary&, Istream&)
    in file db/dictionary/entry/entryIO.C at line 144
    Reading /work2/10249/ctshep3141/frontera/coe347/COE-347-Open-Foam/of-project-2/Re-110/medium/large/system/probes
    found on line 26 the punctuation token '/'
    expected either } or EOF
--> FOAM Warning : 
    From function entry::New(dictionary&, Istream&)
    in file db/dictionary/entry/entryIO.C at line 144
    Reading /work2/10249/ctshep3141/frontera/coe347/COE-347-Open-Foam/of-project-2/Re-110/medium/large/system/probes
    found on line 26 the punctuation token '/'
    expected either } or EOF
--> FOAM Warning : 
    From function entry::New(dictionary&, Istream&)
    in file db/dictionary/entry/entryIO.C at line 144
    Reading /work2/10249/ctshep3141/frontera/coe347/COE-347-Open-Foam/of-project-2/Re-110/medium/large/system/probes
    found on line 26 the punctuation token '/'
    expected either } or EOF
--> FOAM Warning : 
    From function entry::New(dictionary&, Istream&)
    in file db/dictionary/entry/entryIO.C at line 144
    Reading /work2/10249/ctshep3141/frontera/coe347/COE-347-Open-Foam/of-project-2/Re-110/medium/large/system/probes
    found on line 26 the punctuation token '/'
    expected either } or EOF
--> FOAM Warning : 
    From function entry::New(dictionary&, Istream&)
    in file db/dictionary/entry/entryIO.C at line 144
    Reading /work2/10249/ctshep3141/frontera/coe347/COE-347-Open-Foam/of-project-2/Re-110/medium/large/system/probes
    found on line 26 the punctuation token '/'
    expected either } or EOF
--> FOAM Warning : 
    From function entry::New(dictionary&, Istream&)
    in file db/dictionary/entry/entryIO.C at line 144
    Reading /work2/10249/ctshep3141/frontera/coe347/COE-347-Open-Foam/of-project-2/Re-110/medium/large/system/probes
    found on line 26 the punctuation token '/'
    expected either } or EOF
--> FOAM Warning : 
    From function entry::New(dictionary&, Istream&)
    in file db/dictionary/entry/entryIO.C at line 144
    Reading /work2/10249/ctshep3141/frontera/coe347/COE-347-Open-Foam/of-project-2/Re-110/medium/large/system/probes
    found on line 26 the punctuation token '/'
    expected either } or EOF
--> FOAM Warning : 
    From function entry::New(dictionary&, Istream&)
    in file db/dictionary/entry/entryIO.C at line 144
    Reading /work2/10249/ctshep3141/frontera/coe347/COE-347-Open-Foam/of-project-2/Re-110/medium/large/system/probes
    found on line 26 the punctuation token '/'
    expected either } or EOF
--> FOAM Warning : 
    From function entry::New(dictionary&, Istream&)
    in file db/dictionary/entry/entryIO.C at line 144
    Reading /work2/10249/ctshep3141/frontera/coe347/COE-347-Open-Foam/of-project-2/Re-110/medium/large/system/probes
    found on line 26 the punctuation token '/'
    expected either } or EOF
--> FOAM Warning : 
    From function entry::New(dictionary&, Istream&)
    in file db/dictionary/entry/entryIO.C at line 144
    Reading /work2/10249/ctshep3141/frontera/coe347/COE-347-Open-Foam/of-project-2/Re-110/medium/large/system/probes
    found on line 26 the punctuation token '/'
    expected either } or EOF
--> FOAM Warning : 
    From function entry::New(dictionary&, Istream&)
    in file db/dictionary/entry/entryIO.C at line 144
    Reading /work2/10249/ctshep3141/frontera/coe347/COE-347-Open-Foam/of-project-2/Re-110/medium/large/system/probes
    found on line 26 the punctuation token '/'
    expected either } or EOF
--> FOAM Warning : 
    From function entry::New(dictionary&, Istream&)
    in file db/dictionary/entry/entryIO.C at line 144
    Reading /work2/10249/ctshep3141/frontera/coe347/COE-347-Open-Foam/of-project-2/Re-110/medium/large/system/probes
    found on line 26 the punctuation token '/'
    expected either } or EOF
--> FOAM Warning : 
    From function entry::New(dictionary&, Istream&)
    in file db/dictionary/entry/entryIO.C at line 144
    Reading /work2/10249/ctshep3141/frontera/coe347/COE-347-Open-Foam/of-project-2/Re-110/medium/large/system/probes
    found on line 26 the punctuation token '/'
    expected either } or EOF
--> FOAM Warning : 
    From function entry::New(dictionary&, Istream&)
    in file db/dictionary/entry/entryIO.C at line 144
    Reading /work2/10249/ctshep3141/frontera/coe347/COE-347-Open-Foam/of-project-2/Re-110/medium/large/system/probes
    found on line 26 the punctuation token '/'
    expected either } or EOF
--> FOAM Warning : 
    From function entry::New(dictionary&, Istream&)
    in file db/dictionary/entry/entryIO.C at line 144
    Reading /work2/10249/ctshep3141/frontera/coe347/COE-347-Open-Foam/of-project-2/Re-110/medium/large/system/probes
    found on line 26 the punctuation token '/'
    expected either } or EOF
--> FOAM Warning : 
    From function entry::New(dictionary&, Istream&)
    in file db/dictionary/entry/entryIO.C at line 144
    Reading /work2/10249/ctshep3141/frontera/coe347/COE-347-Open-Foam/of-project-2/Re-110/medium/large/system/probes
    found on line 26 the punctuation token '/'
    expected either } or EOF
--> FOAM Warning : 
    From function entry::New(dictionary&, Istream&)
    in file db/dictionary/entry/entryIO.C at line 144
    Reading /work2/10249/ctshep3141/frontera/coe347/COE-347-Open-Foam/of-project-2/Re-110/medium/large/system/probes
    found on line 26 the punctuation token '/'
    expected either } or EOF
--> FOAM Warning : 
    From function entry::New(dictionary&, Istream&)
    in file db/dictionary/entry/entryIO.C at line 144
    Reading /work2/10249/ctshep3141/frontera/coe347/COE-347-Open-Foam/of-project-2/Re-110/medium/large/system/probes
    found on line 26 the punctuation token '/'
    expected either } or EOF
--> FOAM Warning : 
    From function entry::New(dictionary&, Istream&)
    in file db/dictionary/entry/entryIO.C at line 144
    Reading /work2/10249/ctshep3141/frontera/coe347/COE-347-Open-Foam/of-project-2/Re-110/medium/large/system/probes
    found on line 26 the punctuation token '/'
    expected either } or EOF
--> FOAM Warning : 
    From function entry::New(dictionary&, Istream&)
    in file db/dictionary/entry/entryIO.C at line 144
    Reading /work2/10249/ctshep3141/frontera/coe347/COE-347-Open-Foam/of-project-2/Re-110/medium/large/system/probes
    found on line 26 the punctuation token '/'
    expected either } or EOF
--> FOAM Warning : 
    From function entry::New(dictionary&, Istream&)
    in file db/dictionary/entry/entryIO.C at line 144
    Reading /work2/10249/ctshep3141/frontera/coe347/COE-347-Open-Foam/of-project-2/Re-110/medium/large/system/probes
    found on line 26 the punctuation token '/'
    expected either } or EOF
--> FOAM Warning : 
    From function entry::New(dictionary&, Istream&)
    in file db/dictionary/entry/entryIO.C at line 144
    Reading /work2/10249/ctshep3141/frontera/coe347/COE-347-Open-Foam/of-project-2/Re-110/medium/large/system/probes
    found on line 26 the punctuation token '/'
    expected either } or EOF
--> FOAM Warning : 
    From function entry::New(dictionary&, Istream&)
    in file db/dictionary/entry/entryIO.C at line 144
    Reading /work2/10249/ctshep3141/frontera/coe347/COE-347-Open-Foam/of-project-2/Re-110/medium/large/system/probes
    found on line 26 the punctuation token '/'
    expected either } or EOF
--> FOAM Warning : 
    From function entry::New(dictionary&, Istream&)
    in file db/dictionary/entry/entryIO.C at line 144
    Reading /work2/10249/ctshep3141/frontera/coe347/COE-347-Open-Foam/of-project-2/Re-110/medium/large/system/probes
    found on line 26 the punctuation token '/'
    expected either } or EOF
--> FOAM Warning : 
    From function entry::New(dictionary&, Istream&)
    in file db/dictionary/entry/entryIO.C at line 144
    Reading /work2/10249/ctshep3141/frontera/coe347/COE-347-Open-Foam/of-project-2/Re-110/medium/large/system/probes
    found on line 26 the punctuation token '/'
    expected either } or EOF
--> FOAM Warning : 
    From function entry::New(dictionary&, Istream&)
    in file db/dictionary/entry/entryIO.C at line 144
    Reading /work2/10249/ctshep3141/frontera/coe347/COE-347-Open-Foam/of-project-2/Re-110/medium/large/system/probes
    found on line 26 the punctuation token '/'
    expected either } or EOF
--> FOAM Warning : 
    From function entry::New(dictionary&, Istream&)
    in file db/dictionary/entry/entryIO.C at line 144
    Reading /work2/10249/ctshep3141/frontera/coe347/COE-347-Open-Foam/of-project-2/Re-110/medium/large/system/probes
    found on line 26 the punctuation token '/'
    expected either } or EOF
--> FOAM Warning : 
    From function entry::New(dictionary&, Istream&)
    in file db/dictionary/entry/entryIO.C at line 144
    Reading /work2/10249/ctshep3141/frontera/coe347/COE-347-Open-Foam/of-project-2/Re-110/medium/large/system/probes
    found on line 26 the punctuation token '/'
    expected either } or EOF
--> FOAM Warning : 
    From function entry::New(dictionary&, Istream&)
    in file db/dictionary/entry/entryIO.C at line 144
    Reading /work2/10249/ctshep3141/frontera/coe347/COE-347-Open-Foam/of-project-2/Re-110/medium/large/system/probes
    found on line 26 the punctuation token '/'
    expected either } or EOF
--> FOAM Warning : 
    From function entry::New(dictionary&, Istream&)
    in file db/dictionary/entry/entryIO.C at line 144
    Reading /work2/10249/ctshep3141/frontera/coe347/COE-347-Open-Foam/of-project-2/Re-110/medium/large/system/probes
    found on line 26 the punctuation token '/'
    expected either } or EOF
--> FOAM Warning : 
    From function entry::New(dictionary&, Istream&)
    in file db/dictionary/entry/entryIO.C at line 144
    Reading /work2/10249/ctshep3141/frontera/coe347/COE-347-Open-Foam/of-project-2/Re-110/medium/large/system/probes
    found on line 26 the punctuation token '/'
    expected either } or EOF
--> FOAM Warning : 
    From function entry::New(dictionary&, Istream&)
    in file db/dictionary/entry/entryIO.C at line 144
    Reading /work2/10249/ctshep3141/frontera/coe347/COE-347-Open-Foam/of-project-2/Re-110/medium/large/system/probes
    found on line 26 the punctuation token '/'
    expected either } or EOF
--> FOAM Warning : 
    From function entry::New(dictionary&, Istream&)
    in file db/dictionary/entry/entryIO.C at line 144
    Reading /work2/10249/ctshep3141/frontera/coe347/COE-347-Open-Foam/of-project-2/Re-110/medium/large/system/probes
    found on line 26 the punctuation token '/'
    expected either } or EOF
--> FOAM Warning : 
    From function entry::New(dictionary&, Istream&)
    in file db/dictionary/entry/entryIO.C at line 144
    Reading /work2/10249/ctshep3141/frontera/coe347/COE-347-Open-Foam/of-project-2/Re-110/medium/large/system/probes
    found on line 26 the punctuation token '/'
    expected either } or EOF
--> FOAM Warning : 
    From function entry::New(dictionary&, Istream&)
    in file db/dictionary/entry/entryIO.C at line 144
    Reading /work2/10249/ctshep3141/frontera/coe347/COE-347-Open-Foam/of-project-2/Re-110/medium/large/system/probes
    found on line 26 the punctuation token '/'
    expected either } or EOF
--> FOAM Warning : 
    From function entry::New(dictionary&, Istream&)
    in file db/dictionary/entry/entryIO.C at line 144
    Reading /work2/10249/ctshep3141/frontera/coe347/COE-347-Open-Foam/of-project-2/Re-110/medium/large/system/probes
    found on line 26 the punctuation token '/'
    expected either } or EOF
--> FOAM Warning : 
    From function entry::New(dictionary&, Istream&)
    in file db/dictionary/entry/entryIO.C at line 144
    Reading /work2/10249/ctshep3141/frontera/coe347/COE-347-Open-Foam/of-project-2/Re-110/medium/large/system/probes
    found on line 26 the punctuation token '/'
    expected either } or EOF
--> FOAM Warning : 
    From function entry::New(dictionary&, Istream&)
    in file db/dictionary/entry/entryIO.C at line 144
    Reading /work2/10249/ctshep3141/frontera/coe347/COE-347-Open-Foam/of-project-2/Re-110/medium/large/system/probes
    found on line 26 the punctuation token '/'
    expected either } or EOF
--> FOAM Warning : 
    From function entry::New(dictionary&, Istream&)
    in file db/dictionary/entry/entryIO.C at line 144
    Reading /work2/10249/ctshep3141/frontera/coe347/COE-347-Open-Foam/of-project-2/Re-110/medium/large/system/probes
    found on line 26 the punctuation token '/'
    expected either } or EOF
--> FOAM Warning : 
    From function entry::New(dictionary&, Istream&)
    in file db/dictionary/entry/entryIO.C at line 144
    Reading /work2/10249/ctshep3141/frontera/coe347/COE-347-Open-Foam/of-project-2/Re-110/medium/large/system/probes
    found on line 26 the punctuation token '/'
    expected either } or EOF
--> FOAM Warning : 
    From function entry::New(dictionary&, Istream&)
    in file db/dictionary/entry/entryIO.C at line 144
    Reading /work2/10249/ctshep3141/frontera/coe347/COE-347-Open-Foam/of-project-2/Re-110/medium/large/system/probes
    found on line 26 the punctuation token '/'
    expected either } or EOF
--> FOAM Warning : 
    From function entry::New(dictionary&, Istream&)
    in file db/dictionary/entry/entryIO.C at line 144
    Reading /work2/10249/ctshep3141/frontera/coe347/COE-347-Open-Foam/of-project-2/Re-110/medium/large/system/probes
    found on line 26 the punctuation token '/'
    expected either } or EOF
--> FOAM Warning : 
    From function entry::New(dictionary&, Istream&)
    in file db/dictionary/entry/entryIO.C at line 144
    Reading /work2/10249/ctshep3141/frontera/coe347/COE-347-Open-Foam/of-project-2/Re-110/medium/large/system/probes
    found on line 26 the punctuation token '/'
    expected either } or EOF
--> FOAM Warning : 
    From function entry::New(dictionary&, Istream&)
    in file db/dictionary/entry/entryIO.C at line 144
    Reading /work2/10249/ctshep3141/frontera/coe347/COE-347-Open-Foam/of-project-2/Re-110/medium/large/system/probes
    found on line 26 the punctuation token '/'
    expected either } or EOF
--> FOAM Warning : 
    From function entry::New(dictionary&, Istream&)
    in file db/dictionary/entry/entryIO.C at line 144
    Reading /work2/10249/ctshep3141/frontera/coe347/COE-347-Open-Foam/of-project-2/Re-110/medium/large/system/probes
    found on line 26 the punctuation token '/'
    expected either } or EOF
--> FOAM Warning : 
    From function entry::New(dictionary&, Istream&)
    in file db/dictionary/entry/entryIO.C at line 144
    Reading /work2/10249/ctshep3141/frontera/coe347/COE-347-Open-Foam/of-project-2/Re-110/medium/large/system/probes
    found on line 26 the punctuation token '/'
    expected either } or EOF
--> FOAM Warning : 
    From function entry::New(dictionary&, Istream&)
    in file db/dictionary/entry/entryIO.C at line 144
    Reading /work2/10249/ctshep3141/frontera/coe347/COE-347-Open-Foam/of-project-2/Re-110/medium/large/system/probes
    found on line 26 the punctuation token '/'
    expected either } or EOF
--> FOAM Warning : 
    From function entry::New(dictionary&, Istream&)
    in file db/dictionary/entry/entryIO.C at line 144
    Reading /work2/10249/ctshep3141/frontera/coe347/COE-347-Open-Foam/of-project-2/Re-110/medium/large/system/probes
    found on line 26 the punctuation token '/'
    expected either } or EOF
--> FOAM Warning : 
    From function entry::New(dictionary&, Istream&)
    in file db/dictionary/entry/entryIO.C at line 144
    Reading /work2/10249/ctshep3141/frontera/coe347/COE-347-Open-Foam/of-project-2/Re-110/medium/large/system/probes
    found on line 26 the punctuation token '/'
    expected either } or EOF
--> FOAM Warning : 
    From function entry::New(dictionary&, Istream&)
    in file db/dictionary/entry/entryIO.C at line 144
    Reading /work2/10249/ctshep3141/frontera/coe347/COE-347-Open-Foam/of-project-2/Re-110/medium/large/system/probes
    found on line 26 the punctuation token '/'
    expected either } or EOF
--> FOAM Warning : 
    From function entry::New(dictionary&, Istream&)
    in file db/dictionary/entry/entryIO.C at line 144
    Reading /work2/10249/ctshep3141/frontera/coe347/COE-347-Open-Foam/of-project-2/Re-110/medium/large/system/probes
    found on line 26 the punctuation token '/'
    expected either } or EOF


Reconstructing fields for mesh region0

Time = 1

Reconstructing FV fields

    Reconstructing volScalarFields

        p

    Reconstructing volVectorFields

        U

    Reconstructing surfaceScalarFields

        phi

Reconstructing point fields

No point fields

No lagrangian fields

Time = 2

Reconstructing FV fields

    Reconstructing volScalarFields

        p

    Reconstructing volVectorFields

        U

    Reconstructing surfaceScalarFields

        phi

Reconstructing point fields

No point fields

No lagrangian fields

Time = 3

Reconstructing FV fields

    Reconstructing volScalarFields

        p

    Reconstructing volVectorFields

        U

    Reconstructing surfaceScalarFields

        phi

Reconstructing point fields

No point fields

No lagrangian fields

Time = 4

Reconstructing FV fields

    Reconstructing volScalarFields

        p

    Reconstructing volVectorFields

        U

    Reconstructing surfaceScalarFields

        phi

Reconstructing point fields

No point fields

No lagrangian fields

Time = 5

Reconstructing FV fields

    Reconstructing volScalarFields

        p

    Reconstructing volVectorFields

        U

    Reconstructing surfaceScalarFields

        phi

Reconstructing point fields

No point fields

No lagrangian fields

Time = 6

Reconstructing FV fields

    Reconstructing volScalarFields

        p

    Reconstructing volVectorFields

        U

    Reconstructing surfaceScalarFields

        phi

Reconstructing point fields

No point fields

No lagrangian fields

Time = 7

Reconstructing FV fields

    Reconstructing volScalarFields

        p

    Reconstructing volVectorFields

        U

    Reconstructing surfaceScalarFields

        phi

Reconstructing point fields

No point fields

No lagrangian fields

Time = 8

Reconstructing FV fields

    Reconstructing volScalarFields

        p

    Reconstructing volVectorFields

        U

    Reconstructing surfaceScalarFields

        phi

Reconstructing point fields

No point fields

No lagrangian fields

Time = 9

Reconstructing FV fields

    Reconstructing volScalarFields

        p

    Reconstructing volVectorFields

        U

    Reconstructing surfaceScalarFields

        phi

Reconstructing point fields

No point fields

No lagrangian fields

Time = 10

Reconstructing FV fields

    Reconstructing volScalarFields

        p

    Reconstructing volVectorFields

        U

    Reconstructing surfaceScalarFields

        phi

Reconstructing point fields

No point fields

No lagrangian fields

Time = 11

Reconstructing FV fields

    Reconstructing volScalarFields

        p

    Reconstructing volVectorFields

        U

    Reconstructing surfaceScalarFields

        phi

Reconstructing point fields

No point fields

No lagrangian fields

Time = 12

Reconstructing FV fields

    Reconstructing volScalarFields

        p

    Reconstructing volVectorFields

        U

    Reconstructing surfaceScalarFields

        phi

Reconstructing point fields

No point fields

No lagrangian fields

Time = 13

Reconstructing FV fields

    Reconstructing volScalarFields

        p

    Reconstructing volVectorFields

        U

    Reconstructing surfaceScalarFields

        phi

Reconstructing point fields

No point fields

No lagrangian fields

Time = 14

Reconstructing FV fields

    Reconstructing volScalarFields

        p

    Reconstructing volVectorFields

        U

    Reconstructing surfaceScalarFields

        phi

Reconstructing point fields

No point fields

No lagrangian fields

Time = 15

Reconstructing FV fields

    Reconstructing volScalarFields

        p

    Reconstructing volVectorFields

        U

    Reconstructing surfaceScalarFields

        phi

Reconstructing point fields

No point fields

No lagrangian fields

Time = 16

Reconstructing FV fields

    Reconstructing volScalarFields

        p

    Reconstructing volVectorFields

        U

    Reconstructing surfaceScalarFields

        phi

Reconstructing point fields

No point fields

No lagrangian fields

Time = 17

Reconstructing FV fields

    Reconstructing volScalarFields

        p

    Reconstructing volVectorFields

        U

    Reconstructing surfaceScalarFields

        phi

Reconstructing point fields

No point fields

No lagrangian fields

Time = 18

Reconstructing FV fields

    Reconstructing volScalarFields

        p

    Reconstructing volVectorFields

        U

    Reconstructing surfaceScalarFields

        phi

Reconstructing point fields

No point fields

No lagrangian fields

Time = 19

Reconstructing FV fields

    Reconstructing volScalarFields

        p

    Reconstructing volVectorFields

        U

    Reconstructing surfaceScalarFields

        phi

Reconstructing point fields

No point fields

No lagrangian fields

Time = 20

Reconstructing FV fields

    Reconstructing volScalarFields

        p

    Reconstructing volVectorFields

        U

    Reconstructing surfaceScalarFields

        phi

Reconstructing point fields

No point fields

No lagrangian fields

Time = 21

Reconstructing FV fields

    Reconstructing volScalarFields

        p

    Reconstructing volVectorFields

        U

    Reconstructing surfaceScalarFields

        phi

Reconstructing point fields

No point fields

No lagrangian fields

Time = 22

Reconstructing FV fields

    Reconstructing volScalarFields

        p

    Reconstructing volVectorFields

        U

    Reconstructing surfaceScalarFields

        phi

Reconstructing point fields

No point fields

No lagrangian fields

Time = 23

Reconstructing FV fields

    Reconstructing volScalarFields

        p

    Reconstructing volVectorFields

        U

    Reconstructing surfaceScalarFields

        phi

Reconstructing point fields

No point fields

No lagrangian fields

Time = 24

Reconstructing FV fields

    Reconstructing volScalarFields

        p

    Reconstructing volVectorFields

        U

    Reconstructing surfaceScalarFields

        phi

Reconstructing point fields

No point fields

No lagrangian fields

Time = 25

Reconstructing FV fields

    Reconstructing volScalarFields

        p

    Reconstructing volVectorFields

        U

    Reconstructing surfaceScalarFields

        phi

Reconstructing point fields

No point fields

No lagrangian fields

Time = 26

Reconstructing FV fields

    Reconstructing volScalarFields

        p

    Reconstructing volVectorFields

        U

    Reconstructing surfaceScalarFields

        phi

Reconstructing point fields

No point fields

No lagrangian fields

Time = 27

Reconstructing FV fields

    Reconstructing volScalarFields

        p

    Reconstructing volVectorFields

        U

    Reconstructing surfaceScalarFields

        phi

Reconstructing point fields

No point fields

No lagrangian fields

Time = 28

Reconstructing FV fields

    Reconstructing volScalarFields

        p

    Reconstructing volVectorFields

        U

    Reconstructing surfaceScalarFields

        phi

Reconstructing point fields

No point fields

No lagrangian fields

Time = 29

Reconstructing FV fields

    Reconstructing volScalarFields

        p

    Reconstructing volVectorFields

        U

    Reconstructing surfaceScalarFields

        phi

Reconstructing point fields

No point fields

No lagrangian fields

Time = 30

Reconstructing FV fields

    Reconstructing volScalarFields

        p

    Reconstructing volVectorFields

        U

    Reconstructing surfaceScalarFields

        phi

Reconstructing point fields

No point fields

No lagrangian fields

Time = 31

Reconstructing FV fields

    Reconstructing volScalarFields

        p

    Reconstructing volVectorFields

        U

    Reconstructing surfaceScalarFields

        phi

Reconstructing point fields

No point fields

No lagrangian fields

Time = 32

Reconstructing FV fields

    Reconstructing volScalarFields

        p

    Reconstructing volVectorFields

        U

    Reconstructing surfaceScalarFields

        phi

Reconstructing point fields

No point fields

No lagrangian fields

Time = 33

Reconstructing FV fields

    Reconstructing volScalarFields

        p

    Reconstructing volVectorFields

        U

    Reconstructing surfaceScalarFields

        phi

Reconstructing point fields

No point fields

No lagrangian fields

Time = 34

Reconstructing FV fields

    Reconstructing volScalarFields

        p

    Reconstructing volVectorFields

        U

    Reconstructing surfaceScalarFields

        phi

Reconstructing point fields

No point fields

No lagrangian fields

Time = 35

Reconstructing FV fields

    Reconstructing volScalarFields

        p

    Reconstructing volVectorFields

        U

    Reconstructing surfaceScalarFields

        phi

Reconstructing point fields

No point fields

No lagrangian fields

Time = 36

Reconstructing FV fields

    Reconstructing volScalarFields

        p

    Reconstructing volVectorFields

        U

    Reconstructing surfaceScalarFields

        phi

Reconstructing point fields

No point fields

No lagrangian fields

Time = 37

Reconstructing FV fields

    Reconstructing volScalarFields

        p

    Reconstructing volVectorFields

        U

    Reconstructing surfaceScalarFields

        phi

Reconstructing point fields

No point fields

No lagrangian fields

Time = 38

Reconstructing FV fields

    Reconstructing volScalarFields

        p

    Reconstructing volVectorFields

        U

    Reconstructing surfaceScalarFields

        phi

Reconstructing point fields

No point fields

No lagrangian fields

Time = 39

Reconstructing FV fields

    Reconstructing volScalarFields

        p

    Reconstructing volVectorFields

        U

    Reconstructing surfaceScalarFields

        phi

Reconstructing point fields

No point fields

No lagrangian fields

Time = 40

Reconstructing FV fields

    Reconstructing volScalarFields

        p

    Reconstructing volVectorFields

        U

    Reconstructing surfaceScalarFields

        phi

Reconstructing point fields

No point fields

No lagrangian fields

Time = 41

Reconstructing FV fields

    Reconstructing volScalarFields

        p

    Reconstructing volVectorFields

        U

    Reconstructing surfaceScalarFields

        phi

Reconstructing point fields

No point fields

No lagrangian fields

Time = 42

Reconstructing FV fields

    Reconstructing volScalarFields

        p

    Reconstructing volVectorFields

        U

    Reconstructing surfaceScalarFields

        phi

Reconstructing point fields

No point fields

No lagrangian fields

Time = 43

Reconstructing FV fields

    Reconstructing volScalarFields

        p

    Reconstructing volVectorFields

        U

    Reconstructing surfaceScalarFields

        phi

Reconstructing point fields

No point fields

No lagrangian fields

Time = 44

Reconstructing FV fields

    Reconstructing volScalarFields

        p

    Reconstructing volVectorFields

        U

    Reconstructing surfaceScalarFields

        phi

Reconstructing point fields

No point fields

No lagrangian fields

Time = 45

Reconstructing FV fields

    Reconstructing volScalarFields

        p

    Reconstructing volVectorFields

        U

    Reconstructing surfaceScalarFields

        phi

Reconstructing point fields

No point fields

No lagrangian fields

Time = 46

Reconstructing FV fields

    Reconstructing volScalarFields

        p

    Reconstructing volVectorFields

        U

    Reconstructing surfaceScalarFields

        phi

Reconstructing point fields

No point fields

No lagrangian fields

Time = 47

Reconstructing FV fields

    Reconstructing volScalarFields

        p

    Reconstructing volVectorFields

        U

    Reconstructing surfaceScalarFields

        phi

Reconstructing point fields

No point fields

No lagrangian fields

Time = 48

Reconstructing FV fields

    Reconstructing volScalarFields

        p

    Reconstructing volVectorFields

        U

    Reconstructing surfaceScalarFields

        phi

Reconstructing point fields

No point fields

No lagrangian fields

Time = 49

Reconstructing FV fields

    Reconstructing volScalarFields

        p

    Reconstructing volVectorFields

        U

    Reconstructing surfaceScalarFields

        phi

Reconstructing point fields

No point fields

No lagrangian fields

Time = 50

Reconstructing FV fields

    Reconstructing volScalarFields

        p

    Reconstructing volVectorFields

        U

    Reconstructing surfaceScalarFields

        phi

Reconstructing point fields

No point fields

No lagrangian fields

Time = 51

Reconstructing FV fields

    Reconstructing volScalarFields

        p

    Reconstructing volVectorFields

        U

    Reconstructing surfaceScalarFields

        phi

Reconstructing point fields

No point fields

No lagrangian fields

Time = 52

Reconstructing FV fields

    Reconstructing volScalarFields

        p

    Reconstructing volVectorFields

        U

    Reconstructing surfaceScalarFields

        phi

Reconstructing point fields

No point fields

No lagrangian fields

Time = 53

Reconstructing FV fields

    Reconstructing volScalarFields

        p

    Reconstructing volVectorFields

        U

    Reconstructing surfaceScalarFields

        phi

Reconstructing point fields

No point fields

No lagrangian fields

Time = 54

Reconstructing FV fields

    Reconstructing volScalarFields

        p

    Reconstructing volVectorFields

        U

    Reconstructing surfaceScalarFields

        phi

Reconstructing point fields

No point fields

No lagrangian fields

Time = 55

Reconstructing FV fields

    Reconstructing volScalarFields

        p

    Reconstructing volVectorFields

        U

    Reconstructing surfaceScalarFields

        phi

Reconstructing point fields

No point fields

No lagrangian fields

Time = 56

Reconstructing FV fields

    Reconstructing volScalarFields

        p

    Reconstructing volVectorFields

        U

    Reconstructing surfaceScalarFields

        phi

Reconstructing point fields

No point fields

No lagrangian fields

Time = 57

Reconstructing FV fields

    Reconstructing volScalarFields

        p

    Reconstructing volVectorFields

        U

    Reconstructing surfaceScalarFields

        phi

Reconstructing point fields

No point fields

No lagrangian fields

Time = 58

Reconstructing FV fields

    Reconstructing volScalarFields

        p

    Reconstructing volVectorFields

        U

    Reconstructing surfaceScalarFields

        phi

Reconstructing point fields

No point fields

No lagrangian fields

Time = 59

Reconstructing FV fields

    Reconstructing volScalarFields

        p

    Reconstructing volVectorFields

        U

    Reconstructing surfaceScalarFields

        phi

Reconstructing point fields

No point fields

No lagrangian fields

Time = 60

Reconstructing FV fields

    Reconstructing volScalarFields

        p

    Reconstructing volVectorFields

        U

    Reconstructing surfaceScalarFields

        phi

Reconstructing point fields

No point fields

No lagrangian fields

Time = 61

Reconstructing FV fields

    Reconstructing volScalarFields

        p

    Reconstructing volVectorFields

        U

    Reconstructing surfaceScalarFields

        phi

Reconstructing point fields

No point fields

No lagrangian fields

Time = 62

Reconstructing FV fields

    Reconstructing volScalarFields

        p

    Reconstructing volVectorFields

        U

    Reconstructing surfaceScalarFields

        phi

Reconstructing point fields

No point fields

No lagrangian fields

Time = 63

Reconstructing FV fields

    Reconstructing volScalarFields

        p

    Reconstructing volVectorFields

        U

    Reconstructing surfaceScalarFields

        phi

Reconstructing point fields

No point fields

No lagrangian fields

Time = 64

Reconstructing FV fields

    Reconstructing volScalarFields

        p

    Reconstructing volVectorFields

        U

    Reconstructing surfaceScalarFields

        phi

Reconstructing point fields

No point fields

No lagrangian fields

Time = 65

Reconstructing FV fields

    Reconstructing volScalarFields

        p

    Reconstructing volVectorFields

        U

    Reconstructing surfaceScalarFields

        phi

Reconstructing point fields

No point fields

No lagrangian fields

Time = 66

Reconstructing FV fields

    Reconstructing volScalarFields

        p

    Reconstructing volVectorFields

        U

    Reconstructing surfaceScalarFields

        phi

Reconstructing point fields

No point fields

No lagrangian fields

Time = 67

Reconstructing FV fields

    Reconstructing volScalarFields

        p

    Reconstructing volVectorFields

        U

    Reconstructing surfaceScalarFields

        phi

Reconstructing point fields

No point fields

No lagrangian fields

Time = 68

Reconstructing FV fields

    Reconstructing volScalarFields

        p

    Reconstructing volVectorFields

        U

    Reconstructing surfaceScalarFields

        phi

Reconstructing point fields

No point fields

No lagrangian fields

Time = 69

Reconstructing FV fields

    Reconstructing volScalarFields

        p

    Reconstructing volVectorFields

        U

    Reconstructing surfaceScalarFields

        phi

Reconstructing point fields

No point fields

No lagrangian fields

Time = 70

Reconstructing FV fields

    Reconstructing volScalarFields

        p

    Reconstructing volVectorFields

        U

    Reconstructing surfaceScalarFields

        phi

Reconstructing point fields

No point fields

No lagrangian fields

Time = 71

Reconstructing FV fields

    Reconstructing volScalarFields

        p

    Reconstructing volVectorFields

        U

    Reconstructing surfaceScalarFields

        phi

Reconstructing point fields

No point fields

No lagrangian fields

Time = 72

Reconstructing FV fields

    Reconstructing volScalarFields

        p

    Reconstructing volVectorFields

        U

    Reconstructing surfaceScalarFields

        phi

Reconstructing point fields

No point fields

No lagrangian fields

Time = 73

Reconstructing FV fields

    Reconstructing volScalarFields

        p

    Reconstructing volVectorFields

        U

    Reconstructing surfaceScalarFields

        phi

Reconstructing point fields

No point fields

No lagrangian fields

Time = 74

Reconstructing FV fields

    Reconstructing volScalarFields

        p

    Reconstructing volVectorFields

        U

    Reconstructing surfaceScalarFields

        phi

Reconstructing point fields

No point fields

No lagrangian fields

Time = 75

Reconstructing FV fields

    Reconstructing volScalarFields

        p

    Reconstructing volVectorFields

        U

    Reconstructing surfaceScalarFields

        phi

Reconstructing point fields

No point fields

No lagrangian fields

Time = 76

Reconstructing FV fields

    Reconstructing volScalarFields

        p

    Reconstructing volVectorFields

        U

    Reconstructing surfaceScalarFields

        phi

Reconstructing point fields

No point fields

No lagrangian fields

Time = 77

Reconstructing FV fields

    Reconstructing volScalarFields

        p

    Reconstructing volVectorFields

        U

    Reconstructing surfaceScalarFields

        phi

Reconstructing point fields

No point fields

No lagrangian fields

Time = 78

Reconstructing FV fields

    Reconstructing volScalarFields

        p

    Reconstructing volVectorFields

        U

    Reconstructing surfaceScalarFields

        phi

Reconstructing point fields

No point fields

No lagrangian fields

Time = 79

Reconstructing FV fields

    Reconstructing volScalarFields

        p

    Reconstructing volVectorFields

        U

    Reconstructing surfaceScalarFields

        phi

Reconstructing point fields

No point fields

No lagrangian fields

Time = 80

Reconstructing FV fields

    Reconstructing volScalarFields

        p

    Reconstructing volVectorFields

        U

    Reconstructing surfaceScalarFields

        phi

Reconstructing point fields

No point fields

No lagrangian fields

Time = 81

Reconstructing FV fields

    Reconstructing volScalarFields

        p

    Reconstructing volVectorFields

        U

    Reconstructing surfaceScalarFields

        phi

Reconstructing point fields

No point fields

No lagrangian fields

Time = 82

Reconstructing FV fields

    Reconstructing volScalarFields

        p

    Reconstructing volVectorFields

        U

    Reconstructing surfaceScalarFields

        phi

Reconstructing point fields

No point fields

No lagrangian fields

Time = 83

Reconstructing FV fields

    Reconstructing volScalarFields

        p

    Reconstructing volVectorFields

        U

    Reconstructing surfaceScalarFields

        phi

Reconstructing point fields

No point fields

No lagrangian fields

Time = 84

Reconstructing FV fields

    Reconstructing volScalarFields

        p

    Reconstructing volVectorFields

        U

    Reconstructing surfaceScalarFields

        phi

Reconstructing point fields

No point fields

No lagrangian fields

Time = 85

Reconstructing FV fields

    Reconstructing volScalarFields

        p

    Reconstructing volVectorFields

        U

    Reconstructing surfaceScalarFields

        phi

Reconstructing point fields

No point fields

No lagrangian fields

Time = 86

Reconstructing FV fields

    Reconstructing volScalarFields

        p

    Reconstructing volVectorFields

        U

    Reconstructing surfaceScalarFields

        phi

Reconstructing point fields

No point fields

No lagrangian fields

Time = 87

Reconstructing FV fields

    Reconstructing volScalarFields

        p

    Reconstructing volVectorFields

        U

    Reconstructing surfaceScalarFields

        phi

Reconstructing point fields

No point fields

No lagrangian fields

Time = 88

Reconstructing FV fields

    Reconstructing volScalarFields

        p

    Reconstructing volVectorFields

        U

    Reconstructing surfaceScalarFields

        phi

Reconstructing point fields

No point fields

No lagrangian fields

Time = 89

Reconstructing FV fields

    Reconstructing volScalarFields

        p

    Reconstructing volVectorFields

        U

    Reconstructing surfaceScalarFields

        phi

Reconstructing point fields

No point fields

No lagrangian fields

Time = 90

Reconstructing FV fields

    Reconstructing volScalarFields

        p

    Reconstructing volVectorFields

        U

    Reconstructing surfaceScalarFields

        phi

Reconstructing point fields

No point fields

No lagrangian fields

Time = 91

Reconstructing FV fields

    Reconstructing volScalarFields

        p

    Reconstructing volVectorFields

        U

    Reconstructing surfaceScalarFields

        phi

Reconstructing point fields

No point fields

No lagrangian fields

Time = 92

Reconstructing FV fields

    Reconstructing volScalarFields

        p

    Reconstructing volVectorFields

        U

    Reconstructing surfaceScalarFields

        phi

Reconstructing point fields

No point fields

No lagrangian fields

Time = 93

Reconstructing FV fields

    Reconstructing volScalarFields

        p

    Reconstructing volVectorFields

        U

    Reconstructing surfaceScalarFields

        phi

Reconstructing point fields

No point fields

No lagrangian fields

Time = 94

Reconstructing FV fields

    Reconstructing volScalarFields

        p

    Reconstructing volVectorFields

        U

    Reconstructing surfaceScalarFields

        phi

Reconstructing point fields

No point fields

No lagrangian fields

Time = 95

Reconstructing FV fields

    Reconstructing volScalarFields

        p

    Reconstructing volVectorFields

        U

    Reconstructing surfaceScalarFields

        phi

Reconstructing point fields

No point fields

No lagrangian fields

Time = 96

Reconstructing FV fields

    Reconstructing volScalarFields

        p

    Reconstructing volVectorFields

        U

    Reconstructing surfaceScalarFields

        phi

Reconstructing point fields

No point fields

No lagrangian fields

Time = 97

Reconstructing FV fields

    Reconstructing volScalarFields

        p

    Reconstructing volVectorFields

        U

    Reconstructing surfaceScalarFields

        phi

Reconstructing point fields

No point fields

No lagrangian fields

Time = 98

Reconstructing FV fields

    Reconstructing volScalarFields

        p

    Reconstructing volVectorFields

        U

    Reconstructing surfaceScalarFields

        phi

Reconstructing point fields

No point fields

No lagrangian fields

Time = 99

Reconstructing FV fields

    Reconstructing volScalarFields

        p

    Reconstructing volVectorFields

        U

    Reconstructing surfaceScalarFields

        phi

Reconstructing point fields

No point fields

No lagrangian fields

Time = 100

Reconstructing FV fields

    Reconstructing volScalarFields

        p

    Reconstructing volVectorFields

        U

    Reconstructing surfaceScalarFields

        phi

Reconstructing point fields

No point fields

No lagrangian fields

Time = 101

Reconstructing FV fields

    Reconstructing volScalarFields

        p

    Reconstructing volVectorFields

        U

    Reconstructing surfaceScalarFields

        phi

Reconstructing point fields

No point fields

No lagrangian fields

Time = 102

Reconstructing FV fields

    Reconstructing volScalarFields

        p

    Reconstructing volVectorFields

        U

    Reconstructing surfaceScalarFields

        phi

Reconstructing point fields

No point fields

No lagrangian fields

Time = 103

Reconstructing FV fields

    Reconstructing volScalarFields

        p

    Reconstructing volVectorFields

        U

    Reconstructing surfaceScalarFields

        phi

Reconstructing point fields

No point fields

No lagrangian fields

Time = 104

Reconstructing FV fields

    Reconstructing volScalarFields

        p

    Reconstructing volVectorFields

        U

    Reconstructing surfaceScalarFields

        phi

Reconstructing point fields

No point fields

No lagrangian fields

Time = 105

Reconstructing FV fields

    Reconstructing volScalarFields

        p

    Reconstructing volVectorFields

        U

    Reconstructing surfaceScalarFields

        phi

Reconstructing point fields

No point fields

No lagrangian fields

Time = 106

Reconstructing FV fields

    Reconstructing volScalarFields

        p

    Reconstructing volVectorFields

        U

    Reconstructing surfaceScalarFields

        phi

Reconstructing point fields

No point fields

No lagrangian fields

Time = 107

Reconstructing FV fields

    Reconstructing volScalarFields

        p

    Reconstructing volVectorFields

        U

    Reconstructing surfaceScalarFields

        phi

Reconstructing point fields

No point fields

No lagrangian fields

Time = 108

Reconstructing FV fields

    Reconstructing volScalarFields

        p

    Reconstructing volVectorFields

        U

    Reconstructing surfaceScalarFields

        phi

Reconstructing point fields

No point fields

No lagrangian fields

Time = 109

Reconstructing FV fields

    Reconstructing volScalarFields

        p

    Reconstructing volVectorFields

        U

    Reconstructing surfaceScalarFields

        phi

Reconstructing point fields

No point fields

No lagrangian fields

Time = 110

Reconstructing FV fields

    Reconstructing volScalarFields

        p

    Reconstructing volVectorFields

        U

    Reconstructing surfaceScalarFields

        phi

Reconstructing point fields

No point fields

No lagrangian fields

Time = 111

Reconstructing FV fields

    Reconstructing volScalarFields

        p

    Reconstructing volVectorFields

        U

    Reconstructing surfaceScalarFields

        phi

Reconstructing point fields

No point fields

No lagrangian fields

Time = 112

Reconstructing FV fields

    Reconstructing volScalarFields

        p

    Reconstructing volVectorFields

        U

    Reconstructing surfaceScalarFields

        phi

Reconstructing point fields

No point fields

No lagrangian fields

Time = 113

Reconstructing FV fields

    Reconstructing volScalarFields

        p

    Reconstructing volVectorFields

        U

    Reconstructing surfaceScalarFields

        phi

Reconstructing point fields

No point fields

No lagrangian fields

Time = 114

Reconstructing FV fields

    Reconstructing volScalarFields

        p

    Reconstructing volVectorFields

        U

    Reconstructing surfaceScalarFields

        phi

Reconstructing point fields

No point fields

No lagrangian fields

Time = 115

Reconstructing FV fields

    Reconstructing volScalarFields

        p

    Reconstructing volVectorFields

        U

    Reconstructing surfaceScalarFields

        phi

Reconstructing point fields

No point fields

No lagrangian fields

Time = 116

Reconstructing FV fields

    Reconstructing volScalarFields

        p

    Reconstructing volVectorFields

        U

    Reconstructing surfaceScalarFields

        phi

Reconstructing point fields

No point fields

No lagrangian fields

Time = 117

Reconstructing FV fields

    Reconstructing volScalarFields

        p

    Reconstructing volVectorFields

        U

    Reconstructing surfaceScalarFields

        phi

Reconstructing point fields

No point fields

No lagrangian fields

Time = 118

Reconstructing FV fields

    Reconstructing volScalarFields

        p

    Reconstructing volVectorFields

        U

    Reconstructing surfaceScalarFields

        phi

Reconstructing point fields

No point fields

No lagrangian fields

Time = 119

Reconstructing FV fields

    Reconstructing volScalarFields

        p

    Reconstructing volVectorFields

        U

    Reconstructing surfaceScalarFields

        phi

Reconstructing point fields

No point fields

No lagrangian fields

Time = 120

Reconstructing FV fields

    Reconstructing volScalarFields

        p

    Reconstructing volVectorFields

        U

    Reconstructing surfaceScalarFields

        phi

Reconstructing point fields

No point fields

No lagrangian fields

Time = 121

Reconstructing FV fields

    Reconstructing volScalarFields

        p

    Reconstructing volVectorFields

        U

    Reconstructing surfaceScalarFields

        phi

Reconstructing point fields

No point fields

No lagrangian fields

Time = 122

Reconstructing FV fields

    Reconstructing volScalarFields

        p

    Reconstructing volVectorFields

        U

    Reconstructing surfaceScalarFields

        phi

Reconstructing point fields

No point fields

No lagrangian fields

Time = 123

Reconstructing FV fields

    Reconstructing volScalarFields

        p

    Reconstructing volVectorFields

        U

    Reconstructing surfaceScalarFields

        phi

Reconstructing point fields

No point fields

No lagrangian fields

Time = 124

Reconstructing FV fields

    Reconstructing volScalarFields

        p

    Reconstructing volVectorFields

        U

    Reconstructing surfaceScalarFields

        phi

Reconstructing point fields

No point fields

No lagrangian fields

Time = 125

Reconstructing FV fields

    Reconstructing volScalarFields

        p

    Reconstructing volVectorFields

        U

    Reconstructing surfaceScalarFields

        phi

Reconstructing point fields

No point fields

No lagrangian fields

Time = 126

Reconstructing FV fields

    Reconstructing volScalarFields

        p

    Reconstructing volVectorFields

        U

    Reconstructing surfaceScalarFields

        phi

Reconstructing point fields

No point fields

No lagrangian fields

Time = 127

Reconstructing FV fields

    Reconstructing volScalarFields

        p

    Reconstructing volVectorFields

        U

    Reconstructing surfaceScalarFields

        phi

Reconstructing point fields

No point fields

No lagrangian fields

Time = 128

Reconstructing FV fields

    Reconstructing volScalarFields

        p

    Reconstructing volVectorFields

        U

    Reconstructing surfaceScalarFields

        phi

Reconstructing point fields

No point fields

No lagrangian fields

Time = 129

Reconstructing FV fields

    Reconstructing volScalarFields

        p

    Reconstructing volVectorFields

        U

    Reconstructing surfaceScalarFields

        phi

Reconstructing point fields

No point fields

No lagrangian fields

Time = 130

Reconstructing FV fields

    Reconstructing volScalarFields

        p

    Reconstructing volVectorFields

        U

    Reconstructing surfaceScalarFields

        phi

Reconstructing point fields

No point fields

No lagrangian fields

Time = 131

Reconstructing FV fields

    Reconstructing volScalarFields

        p

    Reconstructing volVectorFields

        U

    Reconstructing surfaceScalarFields

        phi

Reconstructing point fields

No point fields

No lagrangian fields

Time = 132

Reconstructing FV fields

    Reconstructing volScalarFields

        p

    Reconstructing volVectorFields

        U

    Reconstructing surfaceScalarFields

        phi

Reconstructing point fields

No point fields

No lagrangian fields

Time = 133

Reconstructing FV fields

    Reconstructing volScalarFields

        p

    Reconstructing volVectorFields

        U

    Reconstructing surfaceScalarFields

        phi

Reconstructing point fields

No point fields

No lagrangian fields

Time = 134

Reconstructing FV fields

    Reconstructing volScalarFields

        p

    Reconstructing volVectorFields

        U

    Reconstructing surfaceScalarFields

        phi

Reconstructing point fields

No point fields

No lagrangian fields

Time = 135

Reconstructing FV fields

    Reconstructing volScalarFields

        p

    Reconstructing volVectorFields

        U

    Reconstructing surfaceScalarFields

        phi

Reconstructing point fields

No point fields

No lagrangian fields

Time = 136

Reconstructing FV fields

    Reconstructing volScalarFields

        p

    Reconstructing volVectorFields

        U

    Reconstructing surfaceScalarFields

        phi

Reconstructing point fields

No point fields

No lagrangian fields

Time = 137

Reconstructing FV fields

    Reconstructing volScalarFields

        p

    Reconstructing volVectorFields

        U

    Reconstructing surfaceScalarFields

        phi

Reconstructing point fields

No point fields

No lagrangian fields

Time = 138

Reconstructing FV fields

    Reconstructing volScalarFields

        p

    Reconstructing volVectorFields

        U

    Reconstructing surfaceScalarFields

        phi

Reconstructing point fields

No point fields

No lagrangian fields

Time = 139

Reconstructing FV fields

    Reconstructing volScalarFields

        p

    Reconstructing volVectorFields

        U

    Reconstructing surfaceScalarFields

        phi

Reconstructing point fields

No point fields

No lagrangian fields

Time = 140

Reconstructing FV fields

    Reconstructing volScalarFields

        p

    Reconstructing volVectorFields

        U

    Reconstructing surfaceScalarFields

        phi

Reconstructing point fields

No point fields

No lagrangian fields

Time = 141

Reconstructing FV fields

    Reconstructing volScalarFields

        p

    Reconstructing volVectorFields

        U

    Reconstructing surfaceScalarFields

        phi

Reconstructing point fields

No point fields

No lagrangian fields

Time = 142

Reconstructing FV fields

    Reconstructing volScalarFields

        p

    Reconstructing volVectorFields

        U

    Reconstructing surfaceScalarFields

        phi

Reconstructing point fields

No point fields

No lagrangian fields

Time = 143

Reconstructing FV fields

    Reconstructing volScalarFields

        p

    Reconstructing volVectorFields

        U

    Reconstructing surfaceScalarFields

        phi

Reconstructing point fields

No point fields

No lagrangian fields

Time = 144

Reconstructing FV fields

    Reconstructing volScalarFields

        p

    Reconstructing volVectorFields

        U

    Reconstructing surfaceScalarFields

        phi

Reconstructing point fields

No point fields

No lagrangian fields

Time = 145

Reconstructing FV fields

    Reconstructing volScalarFields

        p

    Reconstructing volVectorFields

        U

    Reconstructing surfaceScalarFields

        phi

Reconstructing point fields

No point fields

No lagrangian fields

Time = 146

Reconstructing FV fields

    Reconstructing volScalarFields

        p

    Reconstructing volVectorFields

        U

    Reconstructing surfaceScalarFields

        phi

Reconstructing point fields

No point fields

No lagrangian fields

Time = 147

Reconstructing FV fields

    Reconstructing volScalarFields

        p

    Reconstructing volVectorFields

        U

    Reconstructing surfaceScalarFields

        phi

Reconstructing point fields

No point fields

No lagrangian fields

Time = 148

Reconstructing FV fields

    Reconstructing volScalarFields

        p

    Reconstructing volVectorFields

        U

    Reconstructing surfaceScalarFields

        phi

Reconstructing point fields

No point fields

No lagrangian fields

Time = 149

Reconstructing FV fields

    Reconstructing volScalarFields

        p

    Reconstructing volVectorFields

        U

    Reconstructing surfaceScalarFields

        phi

Reconstructing point fields

No point fields

No lagrangian fields

Time = 150

Reconstructing FV fields

    Reconstructing volScalarFields

        p

    Reconstructing volVectorFields

        U

    Reconstructing surfaceScalarFields

        phi

Reconstructing point fields

No point fields

No lagrangian fields


End

