/*---------------------------------------------------------------------------*\
  =========                 |
  \\      /  F ield         | OpenFOAM: The Open Source CFD Toolbox
   \\    /   O peration     | Website:  https://openfoam.org
    \\  /    A nd           | Version:  7
     \\/     M anipulation  |
\*---------------------------------------------------------------------------*/
Build  : 7
Exec   : icoFoam
Date   : Feb 11 2025
Time   : 00:33:59
Host   : "c211-007.frontera.tacc.utexas.edu"
PID    : 272630
I/O    : uncollated
Case   : /work2/10249/ctshep3141/frontera/coe347/COE-347-Open-Foam/of-project-1/extracred/Re-10-AR-2
nProcs : 1
sigFpe : Enabling floating point exception trapping (FOAM_SIGFPE).
fileModificationChecking : Monitoring run-time modified files using timeStampMaster (fileModificationSkew 10)
allowSystemOperations : Allowing user-supplied system call operations

// * * * * * * * * * * * * * * * * * * * * * * * * * * * * * * * * * * * * * //
Create time

Create mesh for time = 0

Reading transportProperties

Reading field p

Reading field U

Reading/calculating face flux field phi


Starting time loop

Time = 0.000625

Courant Number mean: 0 max: 0
smoothSolver:  Solving for Ux, Initial residual = 1, Final residual = 9.21308e-06, No Iterations 54
smoothSolver:  Solving for Uy, Initial residual = 0, Final residual = 0, No Iterations 0
DICPCG:  Solving for p, Initial residual = 1, Final residual = 0.0473315, No Iterations 175
time step continuity errors : sum local = 7.2559e-06, global = -2.19823e-20, cumulative = -2.19823e-20
DICPCG:  Solving for p, Initial residual = 0.455466, Final residual = 9.90011e-07, No Iterations 252
time step continuity errors : sum local = 3.40515e-10, global = -1.85925e-20, cumulative = -4.05749e-20
ExecutionTime = 0.31 s  ClockTime = 1 s

Time = 0.00125

Courant Number mean: 0.0305419 max: 0.492619
smoothSolver:  Solving for Ux, Initial residual = 0.13644, Final residual = 9.37426e-06, No Iterations 56
smoothSolver:  Solving for Uy, Initial residual = 0.350103, Final residual = 8.66091e-06, No Iterations 65
DICPCG:  Solving for p, Initial residual = 0.664842, Final residual = 0.0329924, No Iterations 168
time step continuity errors : sum local = 8.56319e-06, global = -4.16951e-21, cumulative = -4.47444e-20
DICPCG:  Solving for p, Initial residual = 0.490887, Final residual = 9.37618e-07, No Iterations 247
time step continuity errors : sum local = 3.03233e-10, global = 6.6425e-21, cumulative = -3.81019e-20
ExecutionTime = 0.51 s  ClockTime = 1 s

Time = 0.001875

Courant Number mean: 0.0461915 max: 0.559699
smoothSolver:  Solving for Ux, Initial residual = 0.051663, Final residual = 9.95637e-06, No Iterations 50
smoothSolver:  Solving for Uy, Initial residual = 0.128084, Final residual = 8.8259e-06, No Iterations 59
DICPCG:  Solving for p, Initial residual = 0.63411, Final residual = 0.0300847, No Iterations 91
time step continuity errors : sum local = 7.32965e-06, global = 1.81237e-20, cumulative = -1.99782e-20
DICPCG:  Solving for p, Initial residual = 0.589334, Final residual = 9.51708e-07, No Iterations 245
time step continuity errors : sum local = 2.02483e-10, global = -4.13408e-20, cumulative = -6.1319e-20
ExecutionTime = 0.69 s  ClockTime = 1 s

Time = 0.0025

Courant Number mean: 0.0562706 max: 0.574636
smoothSolver:  Solving for Ux, Initial residual = 0.0315317, Final residual = 9.97974e-06, No Iterations 47
smoothSolver:  Solving for Uy, Initial residual = 0.103401, Final residual = 9.10395e-06, No Iterations 58
DICPCG:  Solving for p, Initial residual = 0.472514, Final residual = 0.0234034, No Iterations 164
time step continuity errors : sum local = 4.56548e-06, global = -5.74121e-20, cumulative = -1.18731e-19
DICPCG:  Solving for p, Initial residual = 0.302024, Final residual = 9.28321e-07, No Iterations 242
time step continuity errors : sum local = 2.60511e-10, global = 3.56887e-21, cumulative = -1.15162e-19
ExecutionTime = 0.88 s  ClockTime = 1 s

Time = 0.003125

Courant Number mean: 0.0642498 max: 0.581922
smoothSolver:  Solving for Ux, Initial residual = 0.0272488, Final residual = 8.89511e-06, No Iterations 48
smoothSolver:  Solving for Uy, Initial residual = 0.0611323, Final residual = 8.82423e-06, No Iterations 55
DICPCG:  Solving for p, Initial residual = 0.34615, Final residual = 0.0169885, No Iterations 157
time step continuity errors : sum local = 2.75666e-06, global = 1.83473e-20, cumulative = -9.6815e-20
DICPCG:  Solving for p, Initial residual = 0.283177, Final residual = 9.00917e-07, No Iterations 237
time step continuity errors : sum local = 1.63911e-10, global = 6.91514e-20, cumulative = -2.76636e-20
ExecutionTime = 1.07 s  ClockTime = 1 s

Time = 0.00375

Courant Number mean: 0.0708541 max: 0.58705
smoothSolver:  Solving for Ux, Initial residual = 0.0207936, Final residual = 8.63456e-06, No Iterations 47
smoothSolver:  Solving for Uy, Initial residual = 0.0449234, Final residual = 9.9224e-06, No Iterations 53
DICPCG:  Solving for p, Initial residual = 0.202687, Final residual = 0.0100565, No Iterations 152
time step continuity errors : sum local = 1.36922e-06, global = -1.28803e-21, cumulative = -2.89516e-20
DICPCG:  Solving for p, Initial residual = 0.179325, Final residual = 7.49406e-07, No Iterations 235
time step continuity errors : sum local = 1.04722e-10, global = -5.95392e-20, cumulative = -8.84908e-20
ExecutionTime = 1.25 s  ClockTime = 2 s

Time = 0.004375

Courant Number mean: 0.0765586 max: 0.590262
smoothSolver:  Solving for Ux, Initial residual = 0.0174786, Final residual = 9.02607e-06, No Iterations 46
smoothSolver:  Solving for Uy, Initial residual = 0.0354787, Final residual = 9.5676e-06, No Iterations 52
DICPCG:  Solving for p, Initial residual = 0.125212, Final residual = 0.00618425, No Iterations 157
time step continuity errors : sum local = 7.80423e-07, global = -6.12631e-21, cumulative = -9.46171e-20
DICPCG:  Solving for p, Initial residual = 0.112317, Final residual = 9.26536e-07, No Iterations 233
time step continuity errors : sum local = 1.1775e-10, global = -2.46884e-20, cumulative = -1.19306e-19
ExecutionTime = 1.44 s  ClockTime = 2 s

Time = 0.005

Courant Number mean: 0.0815781 max: 0.592841
smoothSolver:  Solving for Ux, Initial residual = 0.0150919, Final residual = 9.5417e-06, No Iterations 45
smoothSolver:  Solving for Uy, Initial residual = 0.0298742, Final residual = 9.68451e-06, No Iterations 51
DICPCG:  Solving for p, Initial residual = 0.0764425, Final residual = 0.00344899, No Iterations 160
time step continuity errors : sum local = 4.16589e-07, global = -4.08626e-20, cumulative = -1.60168e-19
DICPCG:  Solving for p, Initial residual = 0.0707919, Final residual = 8.11849e-07, No Iterations 229
time step continuity errors : sum local = 9.68652e-11, global = -5.8495e-20, cumulative = -2.18663e-19
ExecutionTime = 1.63 s  ClockTime = 2 s

Time = 0.005625

Courant Number mean: 0.086071 max: 0.594748
smoothSolver:  Solving for Ux, Initial residual = 0.0132895, Final residual = 8.66416e-06, No Iterations 45
smoothSolver:  Solving for Uy, Initial residual = 0.0254725, Final residual = 9.8182e-06, No Iterations 50
DICPCG:  Solving for p, Initial residual = 0.0506285, Final residual = 0.0022521, No Iterations 163
time step continuity errors : sum local = 2.65495e-07, global = -5.46793e-20, cumulative = -2.73342e-19
DICPCG:  Solving for p, Initial residual = 0.0469507, Final residual = 9.74527e-07, No Iterations 227
time step continuity errors : sum local = 1.13763e-10, global = 6.40685e-20, cumulative = -2.09274e-19
ExecutionTime = 1.81 s  ClockTime = 2 s

Time = 0.00625

Courant Number mean: 0.0901472 max: 0.5963
smoothSolver:  Solving for Ux, Initial residual = 0.0118549, Final residual = 9.30327e-06, No Iterations 44
smoothSolver:  Solving for Uy, Initial residual = 0.0224091, Final residual = 8.72713e-06, No Iterations 50
DICPCG:  Solving for p, Initial residual = 0.0367704, Final residual = 0.00172514, No Iterations 161
time step continuity errors : sum local = 2.01489e-07, global = 5.94229e-20, cumulative = -1.49851e-19
DICPCG:  Solving for p, Initial residual = 0.0345771, Final residual = 9.16773e-07, No Iterations 226
time step continuity errors : sum local = 1.05614e-10, global = -2.95937e-20, cumulative = -1.79445e-19
ExecutionTime = 2 s  ClockTime = 2 s

Time = 0.006875

Courant Number mean: 0.0938704 max: 0.597638
smoothSolver:  Solving for Ux, Initial residual = 0.0107027, Final residual = 8.57771e-06, No Iterations 44
smoothSolver:  Solving for Uy, Initial residual = 0.01994, Final residual = 9.16322e-06, No Iterations 49
DICPCG:  Solving for p, Initial residual = 0.0288639, Final residual = 0.00142692, No Iterations 165
time step continuity errors : sum local = 1.65194e-07, global = 5.4727e-20, cumulative = -1.24718e-19
DICPCG:  Solving for p, Initial residual = 0.0271941, Final residual = 8.7076e-07, No Iterations 227
time step continuity errors : sum local = 9.97231e-11, global = -3.35561e-20, cumulative = -1.58274e-19
ExecutionTime = 2.18 s  ClockTime = 2 s

Time = 0.0075

Courant Number mean: 0.0973008 max: 0.598746
smoothSolver:  Solving for Ux, Initial residual = 0.00974565, Final residual = 9.32913e-06, No Iterations 43
smoothSolver:  Solving for Uy, Initial residual = 0.0179479, Final residual = 9.71159e-06, No Iterations 48
DICPCG:  Solving for p, Initial residual = 0.0260989, Final residual = 0.00128276, No Iterations 162
time step continuity errors : sum local = 1.48404e-07, global = 1.35019e-20, cumulative = -1.44772e-19
DICPCG:  Solving for p, Initial residual = 0.0247075, Final residual = 9.62677e-07, No Iterations 224
time step continuity errors : sum local = 1.10317e-10, global = -9.09638e-20, cumulative = -2.35736e-19
ExecutionTime = 2.36 s  ClockTime = 3 s

Time = 0.008125

Courant Number mean: 0.100485 max: 0.599715
smoothSolver:  Solving for Ux, Initial residual = 0.00894015, Final residual = 8.69071e-06, No Iterations 43
smoothSolver:  Solving for Uy, Initial residual = 0.0163134, Final residual = 8.87885e-06, No Iterations 48
DICPCG:  Solving for p, Initial residual = 0.0227545, Final residual = 0.00110051, No Iterations 163
time step continuity errors : sum local = 1.27187e-07, global = -2.6601e-20, cumulative = -2.62337e-19
DICPCG:  Solving for p, Initial residual = 0.0219027, Final residual = 9.79077e-07, No Iterations 222
time step continuity errors : sum local = 1.12003e-10, global = -8.76516e-20, cumulative = -3.49988e-19
ExecutionTime = 2.54 s  ClockTime = 3 s

Time = 0.00875

Courant Number mean: 0.103449 max: 0.600555
smoothSolver:  Solving for Ux, Initial residual = 0.00824975, Final residual = 9.53584e-06, No Iterations 42
smoothSolver:  Solving for Uy, Initial residual = 0.0149176, Final residual = 9.54203e-06, No Iterations 47
DICPCG:  Solving for p, Initial residual = 0.0196801, Final residual = 0.00095836, No Iterations 162
time step continuity errors : sum local = 1.10489e-07, global = -1.71941e-20, cumulative = -3.67182e-19
DICPCG:  Solving for p, Initial residual = 0.0189431, Final residual = 8.92821e-07, No Iterations 223
time step continuity errors : sum local = 1.02135e-10, global = -5.65448e-20, cumulative = -4.23727e-19
ExecutionTime = 2.72 s  ClockTime = 3 s

Time = 0.009375

Courant Number mean: 0.106227 max: 0.6013
smoothSolver:  Solving for Ux, Initial residual = 0.00765283, Final residual = 8.94853e-06, No Iterations 42
smoothSolver:  Solving for Uy, Initial residual = 0.0137442, Final residual = 8.8301e-06, No Iterations 47
DICPCG:  Solving for p, Initial residual = 0.0174391, Final residual = 0.000867698, No Iterations 162
time step continuity errors : sum local = 9.99887e-08, global = 1.05357e-19, cumulative = -3.18371e-19
DICPCG:  Solving for p, Initial residual = 0.0169756, Final residual = 8.47137e-07, No Iterations 221
time step continuity errors : sum local = 9.68046e-11, global = -3.12634e-20, cumulative = -3.49634e-19
ExecutionTime = 2.9 s  ClockTime = 3 s

Time = 0.01

Courant Number mean: 0.108835 max: 0.601959
smoothSolver:  Solving for Ux, Initial residual = 0.00712858, Final residual = 9.87971e-06, No Iterations 41
smoothSolver:  Solving for Uy, Initial residual = 0.0127115, Final residual = 9.58596e-06, No Iterations 46
DICPCG:  Solving for p, Initial residual = 0.01578, Final residual = 0.000762429, No Iterations 158
time step continuity errors : sum local = 8.76713e-08, global = 3.30759e-21, cumulative = -3.46326e-19
DICPCG:  Solving for p, Initial residual = 0.0149706, Final residual = 9.91976e-07, No Iterations 218
time step continuity errors : sum local = 1.1343e-10, global = 9.2201e-21, cumulative = -3.37106e-19
ExecutionTime = 3.08 s  ClockTime = 3 s

Time = 0.010625

Courant Number mean: 0.111294 max: 0.602554
smoothSolver:  Solving for Ux, Initial residual = 0.00666674, Final residual = 9.32168e-06, No Iterations 41
smoothSolver:  Solving for Uy, Initial residual = 0.0118236, Final residual = 8.94679e-06, No Iterations 46
DICPCG:  Solving for p, Initial residual = 0.0143854, Final residual = 0.000698002, No Iterations 163
time step continuity errors : sum local = 8.0236e-08, global = 4.72034e-20, cumulative = -2.89903e-19
DICPCG:  Solving for p, Initial residual = 0.0136044, Final residual = 9.94698e-07, No Iterations 219
time step continuity errors : sum local = 1.13614e-10, global = -5.05652e-20, cumulative = -3.40468e-19
ExecutionTime = 3.26 s  ClockTime = 4 s

Time = 0.01125

Courant Number mean: 0.113621 max: 0.603087
smoothSolver:  Solving for Ux, Initial residual = 0.00625458, Final residual = 8.8159e-06, No Iterations 41
smoothSolver:  Solving for Uy, Initial residual = 0.0110249, Final residual = 9.78007e-06, No Iterations 45
DICPCG:  Solving for p, Initial residual = 0.0146118, Final residual = 0.000721486, No Iterations 158
time step continuity errors : sum local = 8.30571e-08, global = 6.8542e-20, cumulative = -2.71926e-19
DICPCG:  Solving for p, Initial residual = 0.0137735, Final residual = 9.13034e-07, No Iterations 219
time step continuity errors : sum local = 1.04404e-10, global = -3.65141e-20, cumulative = -3.0844e-19
ExecutionTime = 3.44 s  ClockTime = 4 s

Time = 0.011875

Courant Number mean: 0.115821 max: 0.603573
smoothSolver:  Solving for Ux, Initial residual = 0.00588806, Final residual = 9.8051e-06, No Iterations 40
smoothSolver:  Solving for Uy, Initial residual = 0.0103433, Final residual = 9.20284e-06, No Iterations 45
DICPCG:  Solving for p, Initial residual = 0.013038, Final residual = 0.000562586, No Iterations 165
time step continuity errors : sum local = 6.46295e-08, global = 1.88765e-20, cumulative = -2.89564e-19
DICPCG:  Solving for p, Initial residual = 0.0123724, Final residual = 8.39464e-07, No Iterations 219
time step continuity errors : sum local = 9.59913e-11, global = 3.11379e-20, cumulative = -2.58426e-19
ExecutionTime = 3.61 s  ClockTime = 4 s

Time = 0.0125

Courant Number mean: 0.117916 max: 0.604019
smoothSolver:  Solving for Ux, Initial residual = 0.00555341, Final residual = 9.30583e-06, No Iterations 40
smoothSolver:  Solving for Uy, Initial residual = 0.00969765, Final residual = 8.64739e-06, No Iterations 45
DICPCG:  Solving for p, Initial residual = 0.0120708, Final residual = 0.000599237, No Iterations 157
time step continuity errors : sum local = 6.8925e-08, global = 1.32995e-19, cumulative = -1.25431e-19
DICPCG:  Solving for p, Initial residual = 0.0114, Final residual = 8.07111e-07, No Iterations 219
time step continuity errors : sum local = 9.22774e-11, global = 3.53873e-20, cumulative = -9.00437e-20
ExecutionTime = 3.79 s  ClockTime = 4 s

Time = 0.013125

Courant Number mean: 0.119908 max: 0.604424
smoothSolver:  Solving for Ux, Initial residual = 0.0052544, Final residual = 8.85785e-06, No Iterations 40
smoothSolver:  Solving for Uy, Initial residual = 0.00915587, Final residual = 9.56645e-06, No Iterations 44
DICPCG:  Solving for p, Initial residual = 0.0114958, Final residual = 0.000553599, No Iterations 164
time step continuity errors : sum local = 6.35481e-08, global = -9.36721e-20, cumulative = -1.83716e-19
DICPCG:  Solving for p, Initial residual = 0.0108772, Final residual = 8.12672e-07, No Iterations 218
time step continuity errors : sum local = 9.29197e-11, global = 4.5945e-21, cumulative = -1.79121e-19
ExecutionTime = 3.96 s  ClockTime = 4 s

Time = 0.01375

Courant Number mean: 0.121804 max: 0.604801
smoothSolver:  Solving for Ux, Initial residual = 0.0049771, Final residual = 9.88829e-06, No Iterations 39
smoothSolver:  Solving for Uy, Initial residual = 0.00863146, Final residual = 9.03451e-06, No Iterations 44
DICPCG:  Solving for p, Initial residual = 0.0107954, Final residual = 0.000501491, No Iterations 156
time step continuity errors : sum local = 5.76482e-08, global = 3.10304e-20, cumulative = -1.48091e-19
DICPCG:  Solving for p, Initial residual = 0.0101825, Final residual = 8.30183e-07, No Iterations 218
time step continuity errors : sum local = 9.49706e-11, global = 3.3568e-21, cumulative = -1.44734e-19
ExecutionTime = 4.13 s  ClockTime = 4 s

Time = 0.014375

Courant Number mean: 0.123621 max: 0.605147
smoothSolver:  Solving for Ux, Initial residual = 0.00472739, Final residual = 9.43853e-06, No Iterations 39
smoothSolver:  Solving for Uy, Initial residual = 0.00818571, Final residual = 8.58468e-06, No Iterations 44
DICPCG:  Solving for p, Initial residual = 0.00988959, Final residual = 0.00045242, No Iterations 164
time step continuity errors : sum local = 5.18999e-08, global = 4.65566e-20, cumulative = -9.81776e-20
DICPCG:  Solving for p, Initial residual = 0.00933047, Final residual = 9.5407e-07, No Iterations 216
time step continuity errors : sum local = 1.09138e-10, global = 5.6951e-20, cumulative = -4.12266e-20
ExecutionTime = 4.32 s  ClockTime = 5 s

Time = 0.015

Courant Number mean: 0.125356 max: 0.605471
smoothSolver:  Solving for Ux, Initial residual = 0.00449505, Final residual = 9.0122e-06, No Iterations 39
smoothSolver:  Solving for Uy, Initial residual = 0.00775277, Final residual = 9.51807e-06, No Iterations 43
DICPCG:  Solving for p, Initial residual = 0.00945437, Final residual = 0.000408148, No Iterations 156
time step continuity errors : sum local = 4.68476e-08, global = -1.3952e-19, cumulative = -1.80747e-19
DICPCG:  Solving for p, Initial residual = 0.0089038, Final residual = 6.95986e-07, No Iterations 218
time step continuity errors : sum local = 7.96119e-11, global = -5.05796e-20, cumulative = -2.31327e-19
ExecutionTime = 4.49 s  ClockTime = 5 s

Time = 0.015625

Courant Number mean: 0.127014 max: 0.60577
smoothSolver:  Solving for Ux, Initial residual = 0.00428191, Final residual = 8.62102e-06, No Iterations 39
smoothSolver:  Solving for Uy, Initial residual = 0.00737503, Final residual = 9.06703e-06, No Iterations 43
DICPCG:  Solving for p, Initial residual = 0.00836632, Final residual = 0.000375506, No Iterations 157
time step continuity errors : sum local = 4.30971e-08, global = 3.85047e-20, cumulative = -1.92822e-19
DICPCG:  Solving for p, Initial residual = 0.00802409, Final residual = 9.54552e-07, No Iterations 212
time step continuity errors : sum local = 1.09327e-10, global = 1.22182e-20, cumulative = -1.80604e-19
ExecutionTime = 4.66 s  ClockTime = 5 s

Time = 0.01625

Courant Number mean: 0.128608 max: 0.60605
smoothSolver:  Solving for Ux, Initial residual = 0.0040847, Final residual = 9.67362e-06, No Iterations 38
smoothSolver:  Solving for Uy, Initial residual = 0.00701621, Final residual = 8.64089e-06, No Iterations 43
DICPCG:  Solving for p, Initial residual = 0.00774883, Final residual = 0.000349443, No Iterations 155
time step continuity errors : sum local = 4.01422e-08, global = 3.90514e-20, cumulative = -1.41552e-19
DICPCG:  Solving for p, Initial residual = 0.00733722, Final residual = 8.75299e-07, No Iterations 217
time step continuity errors : sum local = 1.0011e-10, global = -4.19957e-20, cumulative = -1.83548e-19
ExecutionTime = 4.83 s  ClockTime = 5 s

Time = 0.016875

Courant Number mean: 0.130138 max: 0.606314
smoothSolver:  Solving for Ux, Initial residual = 0.00390281, Final residual = 9.27522e-06, No Iterations 38
smoothSolver:  Solving for Uy, Initial residual = 0.00669801, Final residual = 9.65098e-06, No Iterations 42
DICPCG:  Solving for p, Initial residual = 0.00743884, Final residual = 0.000307827, No Iterations 165
time step continuity errors : sum local = 3.53203e-08, global = -4.3997e-20, cumulative = -2.27545e-19
DICPCG:  Solving for p, Initial residual = 0.00703068, Final residual = 8.87459e-07, No Iterations 216
time step continuity errors : sum local = 1.01517e-10, global = 1.84296e-20, cumulative = -2.09115e-19
ExecutionTime = 5 s  ClockTime = 5 s

Time = 0.0175

Courant Number mean: 0.131607 max: 0.606558
smoothSolver:  Solving for Ux, Initial residual = 0.00373188, Final residual = 8.8953e-06, No Iterations 38
smoothSolver:  Solving for Uy, Initial residual = 0.00638889, Final residual = 9.21682e-06, No Iterations 42
DICPCG:  Solving for p, Initial residual = 0.00748661, Final residual = 0.000335804, No Iterations 153
time step continuity errors : sum local = 3.8547e-08, global = -2.80011e-20, cumulative = -2.37116e-19
DICPCG:  Solving for p, Initial residual = 0.00711804, Final residual = 7.67055e-07, No Iterations 217
time step continuity errors : sum local = 8.78296e-11, global = 1.99407e-20, cumulative = -2.17176e-19
ExecutionTime = 5.17 s  ClockTime = 5 s

Time = 0.018125

Courant Number mean: 0.133017 max: 0.606791
smoothSolver:  Solving for Ux, Initial residual = 0.00357382, Final residual = 8.5424e-06, No Iterations 38
smoothSolver:  Solving for Uy, Initial residual = 0.00611756, Final residual = 8.83625e-06, No Iterations 42
DICPCG:  Solving for p, Initial residual = 0.00700796, Final residual = 0.000348296, No Iterations 157
time step continuity errors : sum local = 4.00227e-08, global = 2.22269e-20, cumulative = -1.94949e-19
DICPCG:  Solving for p, Initial residual = 0.00661581, Final residual = 9.21632e-07, No Iterations 213
time step continuity errors : sum local = 1.05478e-10, global = -2.96418e-20, cumulative = -2.24591e-19
ExecutionTime = 5.34 s  ClockTime = 6 s

Time = 0.01875

Courant Number mean: 0.134378 max: 0.60701
smoothSolver:  Solving for Ux, Initial residual = 0.0034249, Final residual = 9.61929e-06, No Iterations 37
smoothSolver:  Solving for Uy, Initial residual = 0.00585036, Final residual = 9.8863e-06, No Iterations 41
DICPCG:  Solving for p, Initial residual = 0.00702465, Final residual = 0.000345536, No Iterations 158
time step continuity errors : sum local = 3.96792e-08, global = -7.2141e-22, cumulative = -2.25312e-19
DICPCG:  Solving for p, Initial residual = 0.00671889, Final residual = 8.89687e-07, No Iterations 215
time step continuity errors : sum local = 1.01918e-10, global = -7.61159e-20, cumulative = -3.01428e-19
ExecutionTime = 5.51 s  ClockTime = 6 s

Time = 0.019375

Courant Number mean: 0.13569 max: 0.607215
smoothSolver:  Solving for Ux, Initial residual = 0.00328443, Final residual = 9.24803e-06, No Iterations 37
smoothSolver:  Solving for Uy, Initial residual = 0.00561593, Final residual = 9.49323e-06, No Iterations 41
DICPCG:  Solving for p, Initial residual = 0.00616758, Final residual = 0.000306567, No Iterations 160
time step continuity errors : sum local = 3.52239e-08, global = -4.59409e-21, cumulative = -3.06022e-19
DICPCG:  Solving for p, Initial residual = 0.00590705, Final residual = 8.27869e-07, No Iterations 206
time step continuity errors : sum local = 9.47754e-11, global = 2.94795e-20, cumulative = -2.76543e-19
ExecutionTime = 5.68 s  ClockTime = 6 s

Time = 0.02

Courant Number mean: 0.136954 max: 0.607409
smoothSolver:  Solving for Ux, Initial residual = 0.00315424, Final residual = 8.90039e-06, No Iterations 37
smoothSolver:  Solving for Uy, Initial residual = 0.00538194, Final residual = 9.1093e-06, No Iterations 41
DICPCG:  Solving for p, Initial residual = 0.00638019, Final residual = 0.000270421, No Iterations 153
time step continuity errors : sum local = 3.10223e-08, global = -8.86518e-20, cumulative = -3.65194e-19
DICPCG:  Solving for p, Initial residual = 0.00603845, Final residual = 9.21701e-07, No Iterations 198
time step continuity errors : sum local = 1.05578e-10, global = -3.29364e-20, cumulative = -3.98131e-19
ExecutionTime = 5.84 s  ClockTime = 6 s

Time = 0.020625

Courant Number mean: 0.138172 max: 0.607595
smoothSolver:  Solving for Ux, Initial residual = 0.00303133, Final residual = 8.57139e-06, No Iterations 37
smoothSolver:  Solving for Uy, Initial residual = 0.00517659, Final residual = 8.76902e-06, No Iterations 41
DICPCG:  Solving for p, Initial residual = 0.00576056, Final residual = 0.000265268, No Iterations 163
time step continuity errors : sum local = 3.04352e-08, global = -2.04336e-20, cumulative = -4.18564e-19
DICPCG:  Solving for p, Initial residual = 0.00548236, Final residual = 9.59406e-07, No Iterations 213
time step continuity errors : sum local = 1.09886e-10, global = -6.96975e-20, cumulative = -4.88262e-19
ExecutionTime = 6.01 s  ClockTime = 6 s

Time = 0.02125

Courant Number mean: 0.139347 max: 0.607771
smoothSolver:  Solving for Ux, Initial residual = 0.00291538, Final residual = 9.67694e-06, No Iterations 36
smoothSolver:  Solving for Uy, Initial residual = 0.00497012, Final residual = 9.84666e-06, No Iterations 40
DICPCG:  Solving for p, Initial residual = 0.00583757, Final residual = 0.000237832, No Iterations 153
time step continuity errors : sum local = 2.7302e-08, global = -5.34162e-20, cumulative = -5.41678e-19
DICPCG:  Solving for p, Initial residual = 0.00552651, Final residual = 8.32942e-07, No Iterations 215
time step continuity errors : sum local = 9.5429e-11, global = -1.73512e-21, cumulative = -5.43413e-19
ExecutionTime = 6.18 s  ClockTime = 6 s

Time = 0.021875

Courant Number mean: 0.140485 max: 0.607936
smoothSolver:  Solving for Ux, Initial residual = 0.00280608, Final residual = 9.33109e-06, No Iterations 36
smoothSolver:  Solving for Uy, Initial residual = 0.00478758, Final residual = 9.49077e-06, No Iterations 40
DICPCG:  Solving for p, Initial residual = 0.0053285, Final residual = 0.000253186, No Iterations 153
time step continuity errors : sum local = 2.91193e-08, global = -1.25196e-19, cumulative = -6.68609e-19
DICPCG:  Solving for p, Initial residual = 0.0051384, Final residual = 9.17996e-07, No Iterations 211
time step continuity errors : sum local = 1.05136e-10, global = 2.60958e-20, cumulative = -6.42513e-19
ExecutionTime = 6.34 s  ClockTime = 7 s

Time = 0.0225

Courant Number mean: 0.141585 max: 0.608095
smoothSolver:  Solving for Ux, Initial residual = 0.00270205, Final residual = 8.99986e-06, No Iterations 36
smoothSolver:  Solving for Uy, Initial residual = 0.00460591, Final residual = 9.13852e-06, No Iterations 40
DICPCG:  Solving for p, Initial residual = 0.00490199, Final residual = 0.00022742, No Iterations 153
time step continuity errors : sum local = 2.61536e-08, global = -5.52107e-21, cumulative = -6.48034e-19
DICPCG:  Solving for p, Initial residual = 0.00471989, Final residual = 8.59593e-07, No Iterations 213
time step continuity errors : sum local = 9.85039e-11, global = 4.26357e-20, cumulative = -6.05398e-19
ExecutionTime = 6.51 s  ClockTime = 7 s

Time = 0.023125

Courant Number mean: 0.142648 max: 0.608245
smoothSolver:  Solving for Ux, Initial residual = 0.00260413, Final residual = 8.68764e-06, No Iterations 36
smoothSolver:  Solving for Uy, Initial residual = 0.00444573, Final residual = 8.82426e-06, No Iterations 40
DICPCG:  Solving for p, Initial residual = 0.00472008, Final residual = 0.00020125, No Iterations 165
time step continuity errors : sum local = 2.31008e-08, global = -4.93862e-20, cumulative = -6.54785e-19
DICPCG:  Solving for p, Initial residual = 0.00449714, Final residual = 8.92762e-07, No Iterations 211
time step continuity errors : sum local = 1.02257e-10, global = -2.48548e-20, cumulative = -6.79639e-19
ExecutionTime = 6.68 s  ClockTime = 7 s

Time = 0.02375

Courant Number mean: 0.143675 max: 0.608388
smoothSolver:  Solving for Ux, Initial residual = 0.00251051, Final residual = 9.82535e-06, No Iterations 35
smoothSolver:  Solving for Uy, Initial residual = 0.00428062, Final residual = 9.93458e-06, No Iterations 39
DICPCG:  Solving for p, Initial residual = 0.0049581, Final residual = 0.00023159, No Iterations 156
time step continuity errors : sum local = 2.65919e-08, global = -1.143e-19, cumulative = -7.9394e-19
DICPCG:  Solving for p, Initial residual = 0.00473524, Final residual = 9.60508e-07, No Iterations 213
time step continuity errors : sum local = 1.10157e-10, global = 3.38444e-20, cumulative = -7.60095e-19
ExecutionTime = 6.85 s  ClockTime = 7 s

Time = 0.024375

Courant Number mean: 0.144668 max: 0.608526
smoothSolver:  Solving for Ux, Initial residual = 0.00242085, Final residual = 9.48793e-06, No Iterations 35
smoothSolver:  Solving for Uy, Initial residual = 0.0041362, Final residual = 9.60192e-06, No Iterations 39
DICPCG:  Solving for p, Initial residual = 0.0047245, Final residual = 0.000224101, No Iterations 162
time step continuity errors : sum local = 2.57117e-08, global = -3.14607e-21, cumulative = -7.63241e-19
DICPCG:  Solving for p, Initial residual = 0.00451065, Final residual = 8.30121e-07, No Iterations 212
time step continuity errors : sum local = 9.51931e-11, global = -1.0673e-19, cumulative = -8.69971e-19
ExecutionTime = 7.01 s  ClockTime = 7 s

Time = 0.025

Courant Number mean: 0.145632 max: 0.608658
smoothSolver:  Solving for Ux, Initial residual = 0.00233751, Final residual = 9.17258e-06, No Iterations 35
smoothSolver:  Solving for Uy, Initial residual = 0.00399278, Final residual = 9.27359e-06, No Iterations 39
DICPCG:  Solving for p, Initial residual = 0.00450769, Final residual = 0.000222672, No Iterations 154
time step continuity errors : sum local = 2.55809e-08, global = 4.80173e-20, cumulative = -8.21954e-19
DICPCG:  Solving for p, Initial residual = 0.00430013, Final residual = 9.82159e-07, No Iterations 212
time step continuity errors : sum local = 1.12655e-10, global = -7.81726e-20, cumulative = -9.00127e-19
ExecutionTime = 7.18 s  ClockTime = 7 s

Time = 0.025625

Courant Number mean: 0.146567 max: 0.608782
smoothSolver:  Solving for Ux, Initial residual = 0.0022571, Final residual = 8.867e-06, No Iterations 35
smoothSolver:  Solving for Uy, Initial residual = 0.00385701, Final residual = 8.96333e-06, No Iterations 39
DICPCG:  Solving for p, Initial residual = 0.00445394, Final residual = 0.000197626, No Iterations 162
time step continuity errors : sum local = 2.26989e-08, global = 7.50095e-20, cumulative = -8.25117e-19
DICPCG:  Solving for p, Initial residual = 0.00424605, Final residual = 8.60626e-07, No Iterations 211
time step continuity errors : sum local = 9.87069e-11, global = -5.1116e-20, cumulative = -8.76233e-19
ExecutionTime = 7.36 s  ClockTime = 8 s

Time = 0.02625

Courant Number mean: 0.147473 max: 0.608903
smoothSolver:  Solving for Ux, Initial residual = 0.00218097, Final residual = 8.57826e-06, No Iterations 35
smoothSolver:  Solving for Uy, Initial residual = 0.00373187, Final residual = 8.67532e-06, No Iterations 39
DICPCG:  Solving for p, Initial residual = 0.00424023, Final residual = 0.000207925, No Iterations 163
time step continuity errors : sum local = 2.39102e-08, global = -1.35327e-19, cumulative = -1.01156e-18
DICPCG:  Solving for p, Initial residual = 0.00407473, Final residual = 9.55003e-07, No Iterations 211
time step continuity errors : sum local = 1.09578e-10, global = -4.00856e-20, cumulative = -1.05165e-18
ExecutionTime = 7.52 s  ClockTime = 8 s

Time = 0.026875

Courant Number mean: 0.148351 max: 0.609017
smoothSolver:  Solving for Ux, Initial residual = 0.00210805, Final residual = 9.72268e-06, No Iterations 34
smoothSolver:  Solving for Uy, Initial residual = 0.00360361, Final residual = 9.79416e-06, No Iterations 38
DICPCG:  Solving for p, Initial residual = 0.00415297, Final residual = 0.000184234, No Iterations 153
time step continuity errors : sum local = 2.11541e-08, global = -9.37789e-20, cumulative = -1.14543e-18
DICPCG:  Solving for p, Initial residual = 0.00393967, Final residual = 9.7862e-07, No Iterations 211
time step continuity errors : sum local = 1.12281e-10, global = 6.09449e-20, cumulative = -1.08448e-18
ExecutionTime = 7.69 s  ClockTime = 8 s

Time = 0.0275

Courant Number mean: 0.149201 max: 0.609126
smoothSolver:  Solving for Ux, Initial residual = 0.00203852, Final residual = 9.41007e-06, No Iterations 34
smoothSolver:  Solving for Uy, Initial residual = 0.00349122, Final residual = 9.49132e-06, No Iterations 38
DICPCG:  Solving for p, Initial residual = 0.00400763, Final residual = 0.000184581, No Iterations 162
time step continuity errors : sum local = 2.12046e-08, global = -2.63883e-20, cumulative = -1.11087e-18
DICPCG:  Solving for p, Initial residual = 0.00381521, Final residual = 9.34261e-07, No Iterations 210
time step continuity errors : sum local = 1.07158e-10, global = -1.42475e-21, cumulative = -1.11229e-18
ExecutionTime = 7.85 s  ClockTime = 8 s

Time = 0.028125

Courant Number mean: 0.150025 max: 0.609233
smoothSolver:  Solving for Ux, Initial residual = 0.00197197, Final residual = 9.11116e-06, No Iterations 34
smoothSolver:  Solving for Uy, Initial residual = 0.00337989, Final residual = 9.19167e-06, No Iterations 38
DICPCG:  Solving for p, Initial residual = 0.00382111, Final residual = 0.00016135, No Iterations 163
time step continuity errors : sum local = 1.85394e-08, global = 2.96984e-20, cumulative = -1.0826e-18
DICPCG:  Solving for p, Initial residual = 0.00366412, Final residual = 8.91956e-07, No Iterations 211
time step continuity errors : sum local = 1.0234e-10, global = -4.25956e-20, cumulative = -1.12519e-18
ExecutionTime = 8.02 s  ClockTime = 8 s

Time = 0.02875

Courant Number mean: 0.150825 max: 0.609334
smoothSolver:  Solving for Ux, Initial residual = 0.00190841, Final residual = 8.82549e-06, No Iterations 34
smoothSolver:  Solving for Uy, Initial residual = 0.00327059, Final residual = 8.89889e-06, No Iterations 38
DICPCG:  Solving for p, Initial residual = 0.00361324, Final residual = 0.000174847, No Iterations 155
time step continuity errors : sum local = 2.00774e-08, global = 1.05937e-20, cumulative = -1.1146e-18
DICPCG:  Solving for p, Initial residual = 0.00344382, Final residual = 9.27667e-07, No Iterations 210
time step continuity errors : sum local = 1.06443e-10, global = -1.01884e-20, cumulative = -1.12479e-18
ExecutionTime = 8.18 s  ClockTime = 9 s

Time = 0.029375

Courant Number mean: 0.151604 max: 0.609431
smoothSolver:  Solving for Ux, Initial residual = 0.00184698, Final residual = 8.54849e-06, No Iterations 34
smoothSolver:  Solving for Uy, Initial residual = 0.00317214, Final residual = 8.63213e-06, No Iterations 38
DICPCG:  Solving for p, Initial residual = 0.00365758, Final residual = 0.000175316, No Iterations 161
time step continuity errors : sum local = 2.01301e-08, global = -6.63605e-20, cumulative = -1.19115e-18
DICPCG:  Solving for p, Initial residual = 0.0034937, Final residual = 9.99201e-07, No Iterations 210
time step continuity errors : sum local = 1.14685e-10, global = -1.3613e-21, cumulative = -1.19251e-18
ExecutionTime = 8.35 s  ClockTime = 9 s

Time = 0.03

Courant Number mean: 0.15236 max: 0.609526
smoothSolver:  Solving for Ux, Initial residual = 0.00178879, Final residual = 9.70463e-06, No Iterations 33
smoothSolver:  Solving for Uy, Initial residual = 0.00307475, Final residual = 9.77751e-06, No Iterations 37
DICPCG:  Solving for p, Initial residual = 0.00352995, Final residual = 0.000158639, No Iterations 163
time step continuity errors : sum local = 1.82366e-08, global = -6.12674e-20, cumulative = -1.25377e-18
DICPCG:  Solving for p, Initial residual = 0.00336089, Final residual = 9.54477e-07, No Iterations 210
time step continuity errors : sum local = 1.09551e-10, global = -2.35112e-20, cumulative = -1.27729e-18
ExecutionTime = 8.51 s  ClockTime = 9 s

Time = 0.030625

Courant Number mean: 0.153094 max: 0.609615
smoothSolver:  Solving for Ux, Initial residual = 0.00173303, Final residual = 9.40815e-06, No Iterations 33
smoothSolver:  Solving for Uy, Initial residual = 0.00297837, Final residual = 9.4761e-06, No Iterations 37
DICPCG:  Solving for p, Initial residual = 0.00334693, Final residual = 0.000159564, No Iterations 156
time step continuity errors : sum local = 1.83381e-08, global = 3.45649e-20, cumulative = -1.24272e-18
DICPCG:  Solving for p, Initial residual = 0.0031926, Final residual = 8.44155e-07, No Iterations 210
time step continuity errors : sum local = 9.69004e-11, global = -1.75451e-20, cumulative = -1.26027e-18
ExecutionTime = 8.67 s  ClockTime = 9 s

Time = 0.03125

Courant Number mean: 0.153807 max: 0.609701
smoothSolver:  Solving for Ux, Initial residual = 0.00167884, Final residual = 9.11977e-06, No Iterations 33
smoothSolver:  Solving for Uy, Initial residual = 0.00289137, Final residual = 9.19998e-06, No Iterations 37
DICPCG:  Solving for p, Initial residual = 0.00336838, Final residual = 0.000162251, No Iterations 159
time step continuity errors : sum local = 1.86448e-08, global = 8.99259e-21, cumulative = -1.25127e-18
DICPCG:  Solving for p, Initial residual = 0.00320511, Final residual = 8.65566e-07, No Iterations 210
time step continuity errors : sum local = 9.93767e-11, global = 3.8351e-20, cumulative = -1.21292e-18
ExecutionTime = 8.84 s  ClockTime = 9 s

Time = 0.031875

Courant Number mean: 0.154498 max: 0.609786
smoothSolver:  Solving for Ux, Initial residual = 0.00162743, Final residual = 8.84663e-06, No Iterations 33
smoothSolver:  Solving for Uy, Initial residual = 0.00280629, Final residual = 8.93053e-06, No Iterations 37
DICPCG:  Solving for p, Initial residual = 0.00327741, Final residual = 0.000156434, No Iterations 163
time step continuity errors : sum local = 1.7988e-08, global = -6.16587e-20, cumulative = -1.27458e-18
DICPCG:  Solving for p, Initial residual = 0.00310678, Final residual = 9.58575e-07, No Iterations 209
time step continuity errors : sum local = 1.10113e-10, global = -2.00935e-20, cumulative = -1.29467e-18
ExecutionTime = 9.01 s  ClockTime = 9 s

Time = 0.0325

Courant Number mean: 0.155171 max: 0.609865
smoothSolver:  Solving for Ux, Initial residual = 0.00157802, Final residual = 8.5836e-06, No Iterations 33
smoothSolver:  Solving for Uy, Initial residual = 0.00272052, Final residual = 8.66231e-06, No Iterations 37
DICPCG:  Solving for p, Initial residual = 0.00313839, Final residual = 0.000151937, No Iterations 160
time step continuity errors : sum local = 1.74596e-08, global = 1.70149e-20, cumulative = -1.27766e-18
DICPCG:  Solving for p, Initial residual = 0.00298558, Final residual = 9.32705e-07, No Iterations 209
time step continuity errors : sum local = 1.07121e-10, global = 4.31669e-20, cumulative = -1.23449e-18
ExecutionTime = 9.18 s  ClockTime = 9 s

Time = 0.033125

Courant Number mean: 0.155823 max: 0.609942
smoothSolver:  Solving for Ux, Initial residual = 0.00153009, Final residual = 9.75271e-06, No Iterations 32
smoothSolver:  Solving for Uy, Initial residual = 0.0026425, Final residual = 9.83021e-06, No Iterations 36
DICPCG:  Solving for p, Initial residual = 0.00305245, Final residual = 0.00014156, No Iterations 161
time step continuity errors : sum local = 1.62638e-08, global = -5.81338e-20, cumulative = -1.29263e-18
DICPCG:  Solving for p, Initial residual = 0.00292414, Final residual = 9.94113e-07, No Iterations 208
time step continuity errors : sum local = 1.1425e-10, global = -1.23631e-19, cumulative = -1.41626e-18
ExecutionTime = 9.34 s  ClockTime = 10 s

Time = 0.03375

Courant Number mean: 0.156458 max: 0.610018
smoothSolver:  Solving for Ux, Initial residual = 0.00148436, Final residual = 9.46619e-06, No Iterations 32
smoothSolver:  Solving for Uy, Initial residual = 0.0025661, Final residual = 9.54874e-06, No Iterations 36
DICPCG:  Solving for p, Initial residual = 0.00283314, Final residual = 0.00013239, No Iterations 163
time step continuity errors : sum local = 1.52182e-08, global = 5.96625e-20, cumulative = -1.3566e-18
DICPCG:  Solving for p, Initial residual = 0.00270047, Final residual = 8.63181e-07, No Iterations 209
time step continuity errors : sum local = 9.91615e-11, global = -1.03782e-20, cumulative = -1.36697e-18
ExecutionTime = 9.5 s  ClockTime = 10 s

Time = 0.034375

Courant Number mean: 0.157077 max: 0.61009
smoothSolver:  Solving for Ux, Initial residual = 0.00144044, Final residual = 9.18977e-06, No Iterations 32
smoothSolver:  Solving for Uy, Initial residual = 0.00249192, Final residual = 9.27467e-06, No Iterations 36
DICPCG:  Solving for p, Initial residual = 0.00278421, Final residual = 0.000135305, No Iterations 162
time step continuity errors : sum local = 1.55509e-08, global = -1.64219e-19, cumulative = -1.53119e-18
DICPCG:  Solving for p, Initial residual = 0.0026614, Final residual = 7.86518e-07, No Iterations 209
time step continuity errors : sum local = 9.03905e-11, global = 9.09512e-20, cumulative = -1.44024e-18
ExecutionTime = 9.66 s  ClockTime = 10 s

Time = 0.035

Courant Number mean: 0.157679 max: 0.610159
smoothSolver:  Solving for Ux, Initial residual = 0.00139784, Final residual = 8.92259e-06, No Iterations 32
smoothSolver:  Solving for Uy, Initial residual = 0.00242125, Final residual = 9.01353e-06, No Iterations 36
DICPCG:  Solving for p, Initial residual = 0.00268089, Final residual = 0.000130506, No Iterations 162
time step continuity errors : sum local = 1.49999e-08, global = -8.49784e-20, cumulative = -1.52522e-18
DICPCG:  Solving for p, Initial residual = 0.00257841, Final residual = 8.03701e-07, No Iterations 209
time step continuity errors : sum local = 9.23817e-11, global = 2.58829e-20, cumulative = -1.49934e-18
ExecutionTime = 9.83 s  ClockTime = 10 s

Time = 0.035625

Courant Number mean: 0.158265 max: 0.610227
smoothSolver:  Solving for Ux, Initial residual = 0.00135686, Final residual = 8.66521e-06, No Iterations 32
smoothSolver:  Solving for Uy, Initial residual = 0.00235313, Final residual = 8.7613e-06, No Iterations 36
DICPCG:  Solving for p, Initial residual = 0.00257701, Final residual = 0.000112295, No Iterations 163
time step continuity errors : sum local = 1.29106e-08, global = -1.34299e-19, cumulative = -1.63364e-18
DICPCG:  Solving for p, Initial residual = 0.00247189, Final residual = 9.65895e-07, No Iterations 208
time step continuity errors : sum local = 1.11036e-10, global = 1.49655e-20, cumulative = -1.61867e-18
ExecutionTime = 9.99 s  ClockTime = 10 s

Time = 0.03625

Courant Number mean: 0.158834 max: 0.610292
smoothSolver:  Solving for Ux, Initial residual = 0.00131739, Final residual = 9.85694e-06, No Iterations 31
smoothSolver:  Solving for Uy, Initial residual = 0.00228696, Final residual = 9.94959e-06, No Iterations 35
DICPCG:  Solving for p, Initial residual = 0.00248976, Final residual = 0.000115291, No Iterations 163
time step continuity errors : sum local = 1.32535e-08, global = -9.25136e-21, cumulative = -1.62792e-18
DICPCG:  Solving for p, Initial residual = 0.00239473, Final residual = 9.97348e-07, No Iterations 208
time step continuity errors : sum local = 1.14673e-10, global = 2.39188e-20, cumulative = -1.604e-18
ExecutionTime = 10.15 s  ClockTime = 10 s

Time = 0.036875

Courant Number mean: 0.159388 max: 0.610354
smoothSolver:  Solving for Ux, Initial residual = 0.00127936, Final residual = 9.57608e-06, No Iterations 31
smoothSolver:  Solving for Uy, Initial residual = 0.00222351, Final residual = 9.67458e-06, No Iterations 35
DICPCG:  Solving for p, Initial residual = 0.00242503, Final residual = 0.000106209, No Iterations 163
time step continuity errors : sum local = 1.22138e-08, global = 6.38352e-20, cumulative = -1.54017e-18
DICPCG:  Solving for p, Initial residual = 0.00233176, Final residual = 9.48313e-07, No Iterations 208
time step continuity errors : sum local = 1.09036e-10, global = 1.54718e-19, cumulative = -1.38545e-18
ExecutionTime = 10.32 s  ClockTime = 11 s

Time = 0.0375

Courant Number mean: 0.159927 max: 0.610415
smoothSolver:  Solving for Ux, Initial residual = 0.00124266, Final residual = 9.30459e-06, No Iterations 31
smoothSolver:  Solving for Uy, Initial residual = 0.0021621, Final residual = 9.40914e-06, No Iterations 35
DICPCG:  Solving for p, Initial residual = 0.00235211, Final residual = 0.00011758, No Iterations 162
time step continuity errors : sum local = 1.35229e-08, global = 1.24757e-19, cumulative = -1.26069e-18
DICPCG:  Solving for p, Initial residual = 0.00225903, Final residual = 9.71166e-07, No Iterations 208
time step continuity errors : sum local = 1.11688e-10, global = -2.16644e-20, cumulative = -1.28236e-18
ExecutionTime = 10.49 s  ClockTime = 11 s

Time = 0.038125

Courant Number mean: 0.160452 max: 0.610474
smoothSolver:  Solving for Ux, Initial residual = 0.0012072, Final residual = 9.04182e-06, No Iterations 31
smoothSolver:  Solving for Uy, Initial residual = 0.00210291, Final residual = 9.15238e-06, No Iterations 35
DICPCG:  Solving for p, Initial residual = 0.00233431, Final residual = 0.000112948, No Iterations 107
time step continuity errors : sum local = 1.50378e-08, global = -4.03263e-20, cumulative = -1.32268e-18
DICPCG:  Solving for p, Initial residual = 0.00223554, Final residual = 8.35038e-07, No Iterations 209
time step continuity errors : sum local = 9.60282e-11, global = 7.31177e-20, cumulative = -1.24957e-18
ExecutionTime = 10.63 s  ClockTime = 11 s

Time = 0.03875

Courant Number mean: 0.160961 max: 0.610531
smoothSolver:  Solving for Ux, Initial residual = 0.00116984, Final residual = 8.75417e-06, No Iterations 31
smoothSolver:  Solving for Uy, Initial residual = 0.00207588, Final residual = 9.00586e-06, No Iterations 35
DICPCG:  Solving for p, Initial residual = 0.00264131, Final residual = 0.000118266, No Iterations 165
time step continuity errors : sum local = 1.36013e-08, global = 4.25549e-21, cumulative = -1.24531e-18
DICPCG:  Solving for p, Initial residual = 0.0025096, Final residual = 9.39459e-07, No Iterations 212
time step continuity errors : sum local = 1.08186e-10, global = -1.86416e-20, cumulative = -1.26395e-18
ExecutionTime = 10.79 s  ClockTime = 11 s

Time = 0.039375

Courant Number mean: 0.161458 max: 0.610585
smoothSolver:  Solving for Ux, Initial residual = 0.00114128, Final residual = 8.5491e-06, No Iterations 31
smoothSolver:  Solving for Uy, Initial residual = 0.00199418, Final residual = 8.65693e-06, No Iterations 35
DICPCG:  Solving for p, Initial residual = 0.00247681, Final residual = 0.000114376, No Iterations 166
time step continuity errors : sum local = 1.31588e-08, global = -4.35444e-20, cumulative = -1.3075e-18
DICPCG:  Solving for p, Initial residual = 0.00235182, Final residual = 9.37267e-07, No Iterations 208
time step continuity errors : sum local = 1.07847e-10, global = -5.02002e-20, cumulative = -1.3577e-18
ExecutionTime = 10.96 s  ClockTime = 11 s

Time = 0.04

Courant Number mean: 0.161941 max: 0.610639
smoothSolver:  Solving for Ux, Initial residual = 0.00110832, Final residual = 9.72824e-06, No Iterations 30
smoothSolver:  Solving for Uy, Initial residual = 0.00193673, Final residual = 9.84762e-06, No Iterations 34
DICPCG:  Solving for p, Initial residual = 0.00236465, Final residual = 0.000110723, No Iterations 93
time step continuity errors : sum local = 1.36195e-08, global = 4.71005e-20, cumulative = -1.3106e-18
DICPCG:  Solving for p, Initial residual = 0.00225298, Final residual = 8.67067e-07, No Iterations 208
time step continuity errors : sum local = 9.96877e-11, global = -8.3843e-20, cumulative = -1.39444e-18
ExecutionTime = 11.1 s  ClockTime = 11 s

Time = 0.040625

Courant Number mean: 0.162412 max: 0.61069
smoothSolver:  Solving for Ux, Initial residual = 0.00107622, Final residual = 9.4462e-06, No Iterations 30
smoothSolver:  Solving for Uy, Initial residual = 0.00189035, Final residual = 9.60328e-06, No Iterations 34
DICPCG:  Solving for p, Initial residual = 0.00228869, Final residual = 0.00010305, No Iterations 165
time step continuity errors : sum local = 1.18575e-08, global = -1.77498e-19, cumulative = -1.57194e-18
DICPCG:  Solving for p, Initial residual = 0.00218559, Final residual = 9.77571e-07, No Iterations 208
time step continuity errors : sum local = 1.12524e-10, global = -9.01812e-20, cumulative = -1.66212e-18
ExecutionTime = 11.26 s  ClockTime = 12 s

Time = 0.04125

Courant Number mean: 0.162872 max: 0.61074
smoothSolver:  Solving for Ux, Initial residual = 0.00104776, Final residual = 9.20252e-06, No Iterations 30
smoothSolver:  Solving for Uy, Initial residual = 0.0018351, Final residual = 9.3273e-06, No Iterations 34
DICPCG:  Solving for p, Initial residual = 0.00220225, Final residual = 0.000101999, No Iterations 158
time step continuity errors : sum local = 1.17379e-08, global = 7.41433e-20, cumulative = -1.58797e-18
DICPCG:  Solving for p, Initial residual = 0.00210291, Final residual = 9.16661e-07, No Iterations 208
time step continuity errors : sum local = 1.05364e-10, global = -8.30523e-20, cumulative = -1.67103e-18
ExecutionTime = 11.42 s  ClockTime = 12 s

Time = 0.041875

Courant Number mean: 0.163319 max: 0.610789
smoothSolver:  Solving for Ux, Initial residual = 0.00101838, Final residual = 8.94761e-06, No Iterations 30
smoothSolver:  Solving for Uy, Initial residual = 0.0017861, Final residual = 9.0869e-06, No Iterations 34
DICPCG:  Solving for p, Initial residual = 0.00205755, Final residual = 9.83184e-05, No Iterations 96
time step continuity errors : sum local = 1.23466e-08, global = 7.78431e-22, cumulative = -1.67025e-18
DICPCG:  Solving for p, Initial residual = 0.00197133, Final residual = 9.7522e-07, No Iterations 206
time step continuity errors : sum local = 1.12197e-10, global = -3.35112e-20, cumulative = -1.70376e-18
ExecutionTime = 11.56 s  ClockTime = 12 s

Time = 0.0425

Courant Number mean: 0.163755 max: 0.610836
smoothSolver:  Solving for Ux, Initial residual = 0.000988916, Final residual = 8.68488e-06, No Iterations 30
smoothSolver:  Solving for Uy, Initial residual = 0.00174956, Final residual = 8.88675e-06, No Iterations 34
DICPCG:  Solving for p, Initial residual = 0.00219615, Final residual = 9.97937e-05, No Iterations 165
time step continuity errors : sum local = 1.14855e-08, global = 3.73173e-20, cumulative = -1.66644e-18
DICPCG:  Solving for p, Initial residual = 0.00209519, Final residual = 9.36421e-07, No Iterations 209
time step continuity errors : sum local = 1.07787e-10, global = 8.70544e-20, cumulative = -1.57939e-18
ExecutionTime = 11.72 s  ClockTime = 12 s

Time = 0.043125

Courant Number mean: 0.16418 max: 0.610881
smoothSolver:  Solving for Ux, Initial residual = 0.000963894, Final residual = 9.91889e-06, No Iterations 29
smoothSolver:  Solving for Uy, Initial residual = 0.00169447, Final residual = 8.61121e-06, No Iterations 34
DICPCG:  Solving for p, Initial residual = 0.00211392, Final residual = 0.000102851, No Iterations 159
time step continuity errors : sum local = 1.18374e-08, global = 8.2009e-21, cumulative = -1.57119e-18
DICPCG:  Solving for p, Initial residual = 0.00202053, Final residual = 8.5325e-07, No Iterations 208
time step continuity errors : sum local = 9.81128e-11, global = 4.12889e-20, cumulative = -1.5299e-18
ExecutionTime = 11.88 s  ClockTime = 12 s

Time = 0.04375

Courant Number mean: 0.164594 max: 0.610925
smoothSolver:  Solving for Ux, Initial residual = 0.000937183, Final residual = 9.64789e-06, No Iterations 29
smoothSolver:  Solving for Uy, Initial residual = 0.0016486, Final residual = 9.79932e-06, No Iterations 33
DICPCG:  Solving for p, Initial residual = 0.00194066, Final residual = 9.60867e-05, No Iterations 94
time step continuity errors : sum local = 1.1682e-08, global = 6.71861e-20, cumulative = -1.46271e-18
DICPCG:  Solving for p, Initial residual = 0.00185601, Final residual = 9.33225e-07, No Iterations 206
time step continuity errors : sum local = 1.07418e-10, global = 2.36988e-20, cumulative = -1.43901e-18
ExecutionTime = 12.02 s  ClockTime = 12 s

Time = 0.044375

Courant Number mean: 0.164996 max: 0.610968
smoothSolver:  Solving for Ux, Initial residual = 0.000910943, Final residual = 9.3768e-06, No Iterations 29
smoothSolver:  Solving for Uy, Initial residual = 0.00161095, Final residual = 9.56746e-06, No Iterations 33
DICPCG:  Solving for p, Initial residual = 0.00200572, Final residual = 8.75175e-05, No Iterations 165
time step continuity errors : sum local = 1.00747e-08, global = -1.339e-20, cumulative = -1.4524e-18
DICPCG:  Solving for p, Initial residual = 0.00191343, Final residual = 9.54079e-07, No Iterations 207
time step continuity errors : sum local = 1.098e-10, global = 8.48087e-20, cumulative = -1.36759e-18
ExecutionTime = 12.18 s  ClockTime = 13 s

Time = 0.045

Courant Number mean: 0.165389 max: 0.611009
smoothSolver:  Solving for Ux, Initial residual = 0.000887553, Final residual = 9.1408e-06, No Iterations 29
smoothSolver:  Solving for Uy, Initial residual = 0.00156459, Final residual = 9.29611e-06, No Iterations 33
DICPCG:  Solving for p, Initial residual = 0.00189038, Final residual = 9.05267e-05, No Iterations 158
time step continuity errors : sum local = 1.04265e-08, global = 7.51102e-20, cumulative = -1.29248e-18
DICPCG:  Solving for p, Initial residual = 0.00180616, Final residual = 9.09314e-07, No Iterations 207
time step continuity errors : sum local = 1.04573e-10, global = 3.5096e-20, cumulative = -1.25739e-18
ExecutionTime = 12.34 s  ClockTime = 13 s

Time = 0.045625

Courant Number mean: 0.165771 max: 0.61105
smoothSolver:  Solving for Ux, Initial residual = 0.000863345, Final residual = 8.89387e-06, No Iterations 29
smoothSolver:  Solving for Uy, Initial residual = 0.00152436, Final residual = 9.06426e-06, No Iterations 33
DICPCG:  Solving for p, Initial residual = 0.00177091, Final residual = 8.35056e-05, No Iterations 96
time step continuity errors : sum local = 1.03017e-08, global = -8.97522e-21, cumulative = -1.26636e-18
DICPCG:  Solving for p, Initial residual = 0.00169202, Final residual = 8.71477e-07, No Iterations 205
time step continuity errors : sum local = 1.00266e-10, global = -4.15255e-20, cumulative = -1.30789e-18
ExecutionTime = 12.49 s  ClockTime = 13 s

Time = 0.04625

Courant Number mean: 0.166143 max: 0.611089
smoothSolver:  Solving for Ux, Initial residual = 0.000839275, Final residual = 8.64352e-06, No Iterations 29
smoothSolver:  Solving for Uy, Initial residual = 0.00149166, Final residual = 8.85927e-06, No Iterations 33
DICPCG:  Solving for p, Initial residual = 0.00184318, Final residual = 8.24594e-05, No Iterations 165
time step continuity errors : sum local = 9.49422e-09, global = -3.91844e-20, cumulative = -1.34707e-18
DICPCG:  Solving for p, Initial residual = 0.00175803, Final residual = 9.75499e-07, No Iterations 207
time step continuity errors : sum local = 1.12332e-10, global = 1.57352e-19, cumulative = -1.18972e-18
ExecutionTime = 12.64 s  ClockTime = 13 s

Time = 0.046875

Courant Number mean: 0.166506 max: 0.611126
smoothSolver:  Solving for Ux, Initial residual = 0.000818229, Final residual = 9.87175e-06, No Iterations 28
smoothSolver:  Solving for Uy, Initial residual = 0.00144748, Final residual = 8.60048e-06, No Iterations 33
DICPCG:  Solving for p, Initial residual = 0.00178911, Final residual = 8.86658e-05, No Iterations 159
time step continuity errors : sum local = 1.02121e-08, global = 3.26807e-20, cumulative = -1.15704e-18
DICPCG:  Solving for p, Initial residual = 0.00171227, Final residual = 8.68899e-07, No Iterations 207
time step continuity errors : sum local = 9.99411e-11, global = -3.33822e-20, cumulative = -1.19042e-18
ExecutionTime = 12.8 s  ClockTime = 13 s

Time = 0.0475

Courant Number mean: 0.166859 max: 0.611163
smoothSolver:  Solving for Ux, Initial residual = 0.000796215, Final residual = 9.60857e-06, No Iterations 28
smoothSolver:  Solving for Uy, Initial residual = 0.00140976, Final residual = 9.79346e-06, No Iterations 32
DICPCG:  Solving for p, Initial residual = 0.00165251, Final residual = 7.85706e-05, No Iterations 94
time step continuity errors : sum local = 9.44643e-09, global = -6.90352e-21, cumulative = -1.19733e-18
DICPCG:  Solving for p, Initial residual = 0.00157699, Final residual = 9.34e-07, No Iterations 205
time step continuity errors : sum local = 1.07542e-10, global = -3.13875e-20, cumulative = -1.22871e-18
ExecutionTime = 12.94 s  ClockTime = 13 s

Time = 0.048125

Courant Number mean: 0.167203 max: 0.611199
smoothSolver:  Solving for Ux, Initial residual = 0.000774614, Final residual = 9.34678e-06, No Iterations 28
smoothSolver:  Solving for Uy, Initial residual = 0.00137694, Final residual = 9.55961e-06, No Iterations 32
DICPCG:  Solving for p, Initial residual = 0.00168615, Final residual = 8.1734e-05, No Iterations 164
time step continuity errors : sum local = 9.41047e-09, global = -6.05665e-20, cumulative = -1.28928e-18
DICPCG:  Solving for p, Initial residual = 0.00160653, Final residual = 9.13281e-07, No Iterations 206
time step continuity errors : sum local = 1.05126e-10, global = -2.6877e-20, cumulative = -1.31616e-18
ExecutionTime = 13.09 s  ClockTime = 13 s

Time = 0.04875

Courant Number mean: 0.167538 max: 0.611233
smoothSolver:  Solving for Ux, Initial residual = 0.000754958, Final residual = 9.1128e-06, No Iterations 28
smoothSolver:  Solving for Uy, Initial residual = 0.00133895, Final residual = 9.29931e-06, No Iterations 32
DICPCG:  Solving for p, Initial residual = 0.00164068, Final residual = 8.09841e-05, No Iterations 157
time step continuity errors : sum local = 9.33959e-09, global = 7.18305e-20, cumulative = -1.24433e-18
DICPCG:  Solving for p, Initial residual = 0.00156804, Final residual = 9.31431e-07, No Iterations 206
time step continuity errors : sum local = 1.07184e-10, global = -1.48552e-20, cumulative = -1.25918e-18
ExecutionTime = 13.25 s  ClockTime = 14 s

Time = 0.049375

Courant Number mean: 0.167866 max: 0.611267
smoothSolver:  Solving for Ux, Initial residual = 0.000734883, Final residual = 8.87196e-06, No Iterations 28
smoothSolver:  Solving for Uy, Initial residual = 0.00130585, Final residual = 9.07411e-06, No Iterations 32
DICPCG:  Solving for p, Initial residual = 0.00155691, Final residual = 7.65915e-05, No Iterations 94
time step continuity errors : sum local = 9.26748e-09, global = 1.74e-21, cumulative = -1.25744e-18
DICPCG:  Solving for p, Initial residual = 0.00148835, Final residual = 8.81679e-07, No Iterations 204
time step continuity errors : sum local = 1.01485e-10, global = -2.82819e-20, cumulative = -1.28572e-18
ExecutionTime = 13.39 s  ClockTime = 14 s

Time = 0.05

Courant Number mean: 0.168186 max: 0.6113
smoothSolver:  Solving for Ux, Initial residual = 0.000715015, Final residual = 8.63101e-06, No Iterations 28
smoothSolver:  Solving for Uy, Initial residual = 0.00127607, Final residual = 8.85947e-06, No Iterations 32
DICPCG:  Solving for p, Initial residual = 0.00158575, Final residual = 7.3431e-05, No Iterations 165
time step continuity errors : sum local = 8.45705e-09, global = -3.07782e-20, cumulative = -1.3165e-18
DICPCG:  Solving for p, Initial residual = 0.0015112, Final residual = 9.32603e-07, No Iterations 206
time step continuity errors : sum local = 1.07372e-10, global = -1.97268e-20, cumulative = -1.33623e-18
ExecutionTime = 13.55 s  ClockTime = 14 s

Time = 0.050625

Courant Number mean: 0.168498 max: 0.611331
smoothSolver:  Solving for Ux, Initial residual = 0.00069722, Final residual = 9.85784e-06, No Iterations 27
smoothSolver:  Solving for Uy, Initial residual = 0.00124069, Final residual = 8.61688e-06, No Iterations 32
DICPCG:  Solving for p, Initial residual = 0.00153302, Final residual = 7.51703e-05, No Iterations 158
time step continuity errors : sum local = 8.66945e-09, global = -4.85307e-20, cumulative = -1.38476e-18
DICPCG:  Solving for p, Initial residual = 0.00146784, Final residual = 9.15281e-07, No Iterations 206
time step continuity errors : sum local = 1.05374e-10, global = -1.87684e-20, cumulative = -1.40353e-18
ExecutionTime = 13.71 s  ClockTime = 14 s

Time = 0.05125

Courant Number mean: 0.168802 max: 0.611363
smoothSolver:  Solving for Ux, Initial residual = 0.000678854, Final residual = 9.60039e-06, No Iterations 27
smoothSolver:  Solving for Uy, Initial residual = 0.00120972, Final residual = 9.82017e-06, No Iterations 31
DICPCG:  Solving for p, Initial residual = 0.00143606, Final residual = 7.13091e-05, No Iterations 93
time step continuity errors : sum local = 8.48134e-09, global = 7.64339e-20, cumulative = -1.32709e-18
DICPCG:  Solving for p, Initial residual = 0.00137157, Final residual = 9.76295e-07, No Iterations 203
time step continuity errors : sum local = 1.12422e-10, global = -1.03531e-19, cumulative = -1.43063e-18
ExecutionTime = 13.84 s  ClockTime = 14 s

Time = 0.051875

Courant Number mean: 0.169098 max: 0.611393
smoothSolver:  Solving for Ux, Initial residual = 0.000660904, Final residual = 9.34599e-06, No Iterations 27
smoothSolver:  Solving for Uy, Initial residual = 0.00118084, Final residual = 9.58101e-06, No Iterations 31
DICPCG:  Solving for p, Initial residual = 0.00144919, Final residual = 7.08068e-05, No Iterations 163
time step continuity errors : sum local = 8.14758e-09, global = 2.54885e-20, cumulative = -1.40514e-18
DICPCG:  Solving for p, Initial residual = 0.00138018, Final residual = 8.68618e-07, No Iterations 205
time step continuity errors : sum local = 1.00011e-10, global = 1.14946e-19, cumulative = -1.29019e-18
ExecutionTime = 14 s  ClockTime = 14 s

Time = 0.0525

Courant Number mean: 0.169387 max: 0.611422
smoothSolver:  Solving for Ux, Initial residual = 0.000644349, Final residual = 9.11387e-06, No Iterations 27
smoothSolver:  Solving for Uy, Initial residual = 0.00114939, Final residual = 9.32913e-06, No Iterations 31
DICPCG:  Solving for p, Initial residual = 0.00144423, Final residual = 6.83801e-05, No Iterations 158
time step continuity errors : sum local = 7.88957e-09, global = 2.72218e-20, cumulative = -1.26297e-18
DICPCG:  Solving for p, Initial residual = 0.00137835, Final residual = 9.28702e-07, No Iterations 205
time step continuity errors : sum local = 1.06978e-10, global = -1.1904e-19, cumulative = -1.38201e-18
ExecutionTime = 14.16 s  ClockTime = 15 s

Time = 0.053125

Courant Number mean: 0.169669 max: 0.61145
smoothSolver:  Solving for Ux, Initial residual = 0.00062755, Final residual = 8.87734e-06, No Iterations 27
smoothSolver:  Solving for Uy, Initial residual = 0.00112181, Final residual = 9.10878e-06, No Iterations 31
DICPCG:  Solving for p, Initial residual = 0.00131651, Final residual = 6.38808e-05, No Iterations 93
time step continuity errors : sum local = 7.60778e-09, global = 5.42522e-20, cumulative = -1.32776e-18
DICPCG:  Solving for p, Initial residual = 0.00125906, Final residual = 8.59614e-07, No Iterations 203
time step continuity errors : sum local = 9.89933e-11, global = -1.98624e-20, cumulative = -1.34762e-18
ExecutionTime = 14.29 s  ClockTime = 15 s

Time = 0.05375

Courant Number mean: 0.169944 max: 0.611478
smoothSolver:  Solving for Ux, Initial residual = 0.000611083, Final residual = 8.64364e-06, No Iterations 27
smoothSolver:  Solving for Uy, Initial residual = 0.00109505, Final residual = 8.8866e-06, No Iterations 31
DICPCG:  Solving for p, Initial residual = 0.00133171, Final residual = 6.64218e-05, No Iterations 163
time step continuity errors : sum local = 7.64445e-09, global = 1.21106e-19, cumulative = -1.22651e-18
DICPCG:  Solving for p, Initial residual = 0.00127186, Final residual = 9.72453e-07, No Iterations 204
time step continuity errors : sum local = 1.11943e-10, global = 5.24396e-20, cumulative = -1.17407e-18
ExecutionTime = 14.45 s  ClockTime = 15 s

Time = 0.054375

Courant Number mean: 0.170212 max: 0.611504
smoothSolver:  Solving for Ux, Initial residual = 0.000595883, Final residual = 9.8706e-06, No Iterations 26
smoothSolver:  Solving for Uy, Initial residual = 0.00106616, Final residual = 8.65484e-06, No Iterations 31
DICPCG:  Solving for p, Initial residual = 0.0013673, Final residual = 6.3697e-05, No Iterations 108
time step continuity errors : sum local = 8.5299e-09, global = 4.59763e-20, cumulative = -1.1281e-18
DICPCG:  Solving for p, Initial residual = 0.00130506, Final residual = 9.08322e-07, No Iterations 205
time step continuity errors : sum local = 1.04624e-10, global = 1.17703e-19, cumulative = -1.01039e-18
ExecutionTime = 14.59 s  ClockTime = 15 s

Time = 0.055

Courant Number mean: 0.170473 max: 0.611531
smoothSolver:  Solving for Ux, Initial residual = 0.000578989, Final residual = 9.58085e-06, No Iterations 26
smoothSolver:  Solving for Uy, Initial residual = 0.00105721, Final residual = 9.9939e-06, No Iterations 30
DICPCG:  Solving for p, Initial residual = 0.00140927, Final residual = 6.07243e-05, No Iterations 166
time step continuity errors : sum local = 6.99281e-09, global = -5.59327e-20, cumulative = -1.06633e-18
DICPCG:  Solving for p, Initial residual = 0.0013437, Final residual = 9.27221e-07, No Iterations 195
time step continuity errors : sum local = 1.07136e-10, global = -4.39862e-20, cumulative = -1.11031e-18
ExecutionTime = 14.74 s  ClockTime = 15 s

Time = 0.055625

Courant Number mean: 0.170728 max: 0.611555
smoothSolver:  Solving for Ux, Initial residual = 0.000566525, Final residual = 9.3799e-06, No Iterations 26
smoothSolver:  Solving for Uy, Initial residual = 0.00101671, Final residual = 9.61756e-06, No Iterations 30
DICPCG:  Solving for p, Initial residual = 0.00132416, Final residual = 6.61725e-05, No Iterations 163
time step continuity errors : sum local = 7.62693e-09, global = -1.24949e-20, cumulative = -1.12281e-18
DICPCG:  Solving for p, Initial residual = 0.00126663, Final residual = 9.55459e-07, No Iterations 205
time step continuity errors : sum local = 1.1008e-10, global = 2.8196e-20, cumulative = -1.09461e-18
ExecutionTime = 14.9 s  ClockTime = 15 s

Time = 0.05625

Courant Number mean: 0.170976 max: 0.611581
smoothSolver:  Solving for Ux, Initial residual = 0.000551414, Final residual = 9.1342e-06, No Iterations 26
smoothSolver:  Solving for Uy, Initial residual = 0.000990324, Final residual = 9.39114e-06, No Iterations 30
DICPCG:  Solving for p, Initial residual = 0.00124999, Final residual = 5.76193e-05, No Iterations 93
time step continuity errors : sum local = 6.94076e-09, global = 7.05061e-20, cumulative = -1.02411e-18
DICPCG:  Solving for p, Initial residual = 0.00118752, Final residual = 9.4358e-07, No Iterations 205
time step continuity errors : sum local = 1.08736e-10, global = -8.2633e-20, cumulative = -1.10674e-18
ExecutionTime = 15.03 s  ClockTime = 15 s

Time = 0.056875

Courant Number mean: 0.171218 max: 0.611604
smoothSolver:  Solving for Ux, Initial residual = 0.000538269, Final residual = 8.91662e-06, No Iterations 26
smoothSolver:  Solving for Uy, Initial residual = 0.000961756, Final residual = 9.11937e-06, No Iterations 30
DICPCG:  Solving for p, Initial residual = 0.00116726, Final residual = 5.61656e-05, No Iterations 165
time step continuity errors : sum local = 6.48404e-09, global = -4.67951e-21, cumulative = -1.11142e-18
DICPCG:  Solving for p, Initial residual = 0.0011151, Final residual = 8.58056e-07, No Iterations 205
time step continuity errors : sum local = 9.88474e-11, global = 2.46829e-20, cumulative = -1.08674e-18
ExecutionTime = 15.19 s  ClockTime = 16 s

Time = 0.0575

Courant Number mean: 0.171454 max: 0.611628
smoothSolver:  Solving for Ux, Initial residual = 0.00052388, Final residual = 8.67816e-06, No Iterations 26
smoothSolver:  Solving for Uy, Initial residual = 0.000941867, Final residual = 8.93507e-06, No Iterations 30
DICPCG:  Solving for p, Initial residual = 0.00116536, Final residual = 5.62947e-05, No Iterations 90
time step continuity errors : sum local = 6.82245e-09, global = 4.82701e-20, cumulative = -1.03846e-18
DICPCG:  Solving for p, Initial residual = 0.00111126, Final residual = 8.63295e-07, No Iterations 203
time step continuity errors : sum local = 9.94429e-11, global = -1.45731e-19, cumulative = -1.1842e-18
ExecutionTime = 15.32 s  ClockTime = 16 s

Time = 0.058125

Courant Number mean: 0.171685 max: 0.611651
smoothSolver:  Solving for Ux, Initial residual = 0.000511609, Final residual = 9.92307e-06, No Iterations 25
smoothSolver:  Solving for Uy, Initial residual = 0.000914223, Final residual = 8.67008e-06, No Iterations 30
DICPCG:  Solving for p, Initial residual = 0.00114655, Final residual = 5.52863e-05, No Iterations 166
time step continuity errors : sum local = 6.38034e-09, global = -1.49129e-20, cumulative = -1.19911e-18
DICPCG:  Solving for p, Initial residual = 0.00109326, Final residual = 9.55072e-07, No Iterations 205
time step continuity errors : sum local = 1.10023e-10, global = -2.67629e-20, cumulative = -1.22587e-18
ExecutionTime = 15.48 s  ClockTime = 16 s

Time = 0.05875

Courant Number mean: 0.171909 max: 0.611673
smoothSolver:  Solving for Ux, Initial residual = 0.000497805, Final residual = 9.65599e-06, No Iterations 25
smoothSolver:  Solving for Uy, Initial residual = 0.000896659, Final residual = 9.93615e-06, No Iterations 29
DICPCG:  Solving for p, Initial residual = 0.00110058, Final residual = 5.41984e-05, No Iterations 93
time step continuity errors : sum local = 6.72632e-09, global = -3.45206e-20, cumulative = -1.26039e-18
DICPCG:  Solving for p, Initial residual = 0.00105138, Final residual = 9.1295e-07, No Iterations 203
time step continuity errors : sum local = 1.05152e-10, global = -2.54651e-20, cumulative = -1.28586e-18
ExecutionTime = 15.61 s  ClockTime = 16 s

Time = 0.059375

Courant Number mean: 0.172128 max: 0.611694
smoothSolver:  Solving for Ux, Initial residual = 0.000486499, Final residual = 9.43573e-06, No Iterations 25
smoothSolver:  Solving for Uy, Initial residual = 0.000870102, Final residual = 9.63538e-06, No Iterations 29
DICPCG:  Solving for p, Initial residual = 0.00112581, Final residual = 5.37518e-05, No Iterations 167
time step continuity errors : sum local = 6.20146e-09, global = -7.04194e-20, cumulative = -1.35628e-18
DICPCG:  Solving for p, Initial residual = 0.00107411, Final residual = 8.63167e-07, No Iterations 206
time step continuity errors : sum local = 9.95097e-11, global = -4.07059e-20, cumulative = -1.39698e-18
ExecutionTime = 15.77 s  ClockTime = 16 s

Time = 0.06

Courant Number mean: 0.172341 max: 0.611716
smoothSolver:  Solving for Ux, Initial residual = 0.000473156, Final residual = 9.17665e-06, No Iterations 25
smoothSolver:  Solving for Uy, Initial residual = 0.000854282, Final residual = 9.46516e-06, No Iterations 29
DICPCG:  Solving for p, Initial residual = 0.00105194, Final residual = 5.19978e-05, No Iterations 98
time step continuity errors : sum local = 6.77662e-09, global = 1.03054e-19, cumulative = -1.29393e-18
DICPCG:  Solving for p, Initial residual = 0.00100199, Final residual = 9.73661e-07, No Iterations 202
time step continuity errors : sum local = 1.1217e-10, global = 7.17114e-20, cumulative = -1.22222e-18
ExecutionTime = 15.9 s  ClockTime = 16 s

Time = 0.060625

Courant Number mean: 0.17255 max: 0.611736
smoothSolver:  Solving for Ux, Initial residual = 0.000463156, Final residual = 8.97994e-06, No Iterations 25
smoothSolver:  Solving for Uy, Initial residual = 0.000827776, Final residual = 9.15799e-06, No Iterations 29
DICPCG:  Solving for p, Initial residual = 0.00118982, Final residual = 5.68424e-05, No Iterations 160
time step continuity errors : sum local = 6.54862e-09, global = -1.13832e-19, cumulative = -1.33605e-18
DICPCG:  Solving for p, Initial residual = 0.0011363, Final residual = 8.88021e-07, No Iterations 206
time step continuity errors : sum local = 1.02506e-10, global = -8.34777e-21, cumulative = -1.3444e-18
ExecutionTime = 16.06 s  ClockTime = 16 s

Time = 0.06125

Courant Number mean: 0.172753 max: 0.611756
smoothSolver:  Solving for Ux, Initial residual = 0.000449854, Final residual = 8.72086e-06, No Iterations 25
smoothSolver:  Solving for Uy, Initial residual = 0.000815716, Final residual = 9.03071e-06, No Iterations 29
DICPCG:  Solving for p, Initial residual = 0.00107715, Final residual = 5.181e-05, No Iterations 163
time step continuity errors : sum local = 5.97132e-09, global = 3.12854e-20, cumulative = -1.31311e-18
DICPCG:  Solving for p, Initial residual = 0.00102933, Final residual = 9.07898e-07, No Iterations 205
time step continuity errors : sum local = 1.04625e-10, global = -9.33601e-20, cumulative = -1.40647e-18
ExecutionTime = 16.22 s  ClockTime = 17 s

Time = 0.061875

Courant Number mean: 0.172951 max: 0.611775
smoothSolver:  Solving for Ux, Initial residual = 0.000438451, Final residual = 9.96299e-06, No Iterations 24
smoothSolver:  Solving for Uy, Initial residual = 0.000793549, Final residual = 8.79187e-06, No Iterations 29
DICPCG:  Solving for p, Initial residual = 0.00103869, Final residual = 4.99418e-05, No Iterations 93
time step continuity errors : sum local = 6.24874e-09, global = -1.36462e-19, cumulative = -1.54293e-18
DICPCG:  Solving for p, Initial residual = 0.000991999, Final residual = 9.81993e-07, No Iterations 203
time step continuity errors : sum local = 1.13088e-10, global = -1.68035e-19, cumulative = -1.71097e-18
ExecutionTime = 16.35 s  ClockTime = 17 s

Time = 0.0625

Courant Number mean: 0.173144 max: 0.611794
smoothSolver:  Solving for Ux, Initial residual = 0.000426873, Final residual = 9.69561e-06, No Iterations 24
smoothSolver:  Solving for Uy, Initial residual = 0.000779317, Final residual = 8.62142e-06, No Iterations 29
DICPCG:  Solving for p, Initial residual = 0.0010627, Final residual = 4.99433e-05, No Iterations 165
time step continuity errors : sum local = 5.7612e-09, global = 1.09929e-19, cumulative = -1.60104e-18
DICPCG:  Solving for p, Initial residual = 0.00101645, Final residual = 8.25597e-07, No Iterations 207
time step continuity errors : sum local = 9.52326e-11, global = -3.38108e-20, cumulative = -1.63485e-18
ExecutionTime = 16.5 s  ClockTime = 17 s

Time = 0.063125

Courant Number mean: 0.173333 max: 0.611812
smoothSolver:  Solving for Ux, Initial residual = 0.000417171, Final residual = 9.47826e-06, No Iterations 24
smoothSolver:  Solving for Uy, Initial residual = 0.000756152, Final residual = 9.77449e-06, No Iterations 28
DICPCG:  Solving for p, Initial residual = 0.00100467, Final residual = 4.89926e-05, No Iterations 159
time step continuity errors : sum local = 5.64935e-09, global = -7.22006e-20, cumulative = -1.70705e-18
DICPCG:  Solving for p, Initial residual = 0.000961223, Final residual = 9.10747e-07, No Iterations 202
time step continuity errors : sum local = 1.05027e-10, global = -5.42277e-20, cumulative = -1.76128e-18
ExecutionTime = 16.66 s  ClockTime = 17 s

Time = 0.06375

Courant Number mean: 0.173517 max: 0.61183
smoothSolver:  Solving for Ux, Initial residual = 0.000406589, Final residual = 9.24001e-06, No Iterations 24
smoothSolver:  Solving for Uy, Initial residual = 0.000737791, Final residual = 9.55059e-06, No Iterations 28
DICPCG:  Solving for p, Initial residual = 0.000899916, Final residual = 4.06984e-05, No Iterations 97
time step continuity errors : sum local = 5.00162e-09, global = 7.61017e-20, cumulative = -1.68518e-18
DICPCG:  Solving for p, Initial residual = 0.000857664, Final residual = 8.3504e-07, No Iterations 202
time step continuity errors : sum local = 9.62893e-11, global = 9.89633e-21, cumulative = -1.67528e-18
ExecutionTime = 16.79 s  ClockTime = 17 s

Time = 0.064375

Courant Number mean: 0.173697 max: 0.611847
smoothSolver:  Solving for Ux, Initial residual = 0.000397272, Final residual = 9.02551e-06, No Iterations 24
smoothSolver:  Solving for Uy, Initial residual = 0.000717491, Final residual = 9.28387e-06, No Iterations 28
DICPCG:  Solving for p, Initial residual = 0.00093458, Final residual = 4.42208e-05, No Iterations 167
time step continuity errors : sum local = 5.0952e-09, global = -2.19605e-20, cumulative = -1.69724e-18
DICPCG:  Solving for p, Initial residual = 0.000894512, Final residual = 9.18563e-07, No Iterations 204
time step continuity errors : sum local = 1.0591e-10, global = -4.18707e-20, cumulative = -1.73911e-18
ExecutionTime = 16.94 s  ClockTime = 17 s

Time = 0.065

Courant Number mean: 0.173872 max: 0.611865
smoothSolver:  Solving for Ux, Initial residual = 0.00038674, Final residual = 8.7864e-06, No Iterations 24
smoothSolver:  Solving for Uy, Initial residual = 0.000703436, Final residual = 9.10596e-06, No Iterations 28
DICPCG:  Solving for p, Initial residual = 0.000866868, Final residual = 4.09112e-05, No Iterations 105
time step continuity errors : sum local = 5.40619e-09, global = 2.01922e-20, cumulative = -1.71892e-18
DICPCG:  Solving for p, Initial residual = 0.000827877, Final residual = 9.29812e-07, No Iterations 200
time step continuity errors : sum local = 1.07102e-10, global = 4.08025e-20, cumulative = -1.67812e-18
ExecutionTime = 17.08 s  ClockTime = 17 s

Time = 0.065625

Courant Number mean: 0.174044 max: 0.611881
smoothSolver:  Solving for Ux, Initial residual = 0.000378836, Final residual = 8.60215e-06, No Iterations 24
smoothSolver:  Solving for Uy, Initial residual = 0.000682502, Final residual = 8.81992e-06, No Iterations 28
DICPCG:  Solving for p, Initial residual = 0.000962743, Final residual = 4.22378e-05, No Iterations 168
time step continuity errors : sum local = 4.87543e-09, global = 1.87492e-20, cumulative = -1.65937e-18
DICPCG:  Solving for p, Initial residual = 0.000917648, Final residual = 9.74536e-07, No Iterations 206
time step continuity errors : sum local = 1.12328e-10, global = 1.03127e-19, cumulative = -1.55624e-18
ExecutionTime = 17.23 s  ClockTime = 18 s

Time = 0.06625

Courant Number mean: 0.174211 max: 0.611897
smoothSolver:  Solving for Ux, Initial residual = 0.000368032, Final residual = 9.78341e-06, No Iterations 23
smoothSolver:  Solving for Uy, Initial residual = 0.00067116, Final residual = 8.68019e-06, No Iterations 28
DICPCG:  Solving for p, Initial residual = 0.000866648, Final residual = 4.2836e-05, No Iterations 158
time step continuity errors : sum local = 4.93742e-09, global = 7.03439e-20, cumulative = -1.4859e-18
DICPCG:  Solving for p, Initial residual = 0.000829571, Final residual = 8.566e-07, No Iterations 203
time step continuity errors : sum local = 9.88754e-11, global = -5.1455e-20, cumulative = -1.53735e-18
ExecutionTime = 17.38 s  ClockTime = 18 s

Time = 0.066875

Courant Number mean: 0.174374 max: 0.611913
smoothSolver:  Solving for Ux, Initial residual = 0.000358877, Final residual = 9.55168e-06, No Iterations 23
smoothSolver:  Solving for Uy, Initial residual = 0.000653559, Final residual = 9.87901e-06, No Iterations 27
DICPCG:  Solving for p, Initial residual = 0.000820509, Final residual = 3.96515e-05, No Iterations 93
time step continuity errors : sum local = 5.02109e-09, global = -1.17482e-21, cumulative = -1.53853e-18
DICPCG:  Solving for p, Initial residual = 0.000785589, Final residual = 9.97643e-07, No Iterations 201
time step continuity errors : sum local = 1.14984e-10, global = 4.69569e-20, cumulative = -1.49157e-18
ExecutionTime = 17.51 s  ClockTime = 18 s

Time = 0.0675

Courant Number mean: 0.174533 max: 0.611928
smoothSolver:  Solving for Ux, Initial residual = 0.000349461, Final residual = 9.29585e-06, No Iterations 23
smoothSolver:  Solving for Uy, Initial residual = 0.000642889, Final residual = 9.70429e-06, No Iterations 27
DICPCG:  Solving for p, Initial residual = 0.000884162, Final residual = 4.35725e-05, No Iterations 165
time step continuity errors : sum local = 5.02594e-09, global = -8.60411e-20, cumulative = -1.57761e-18
DICPCG:  Solving for p, Initial residual = 0.000846659, Final residual = 9.94791e-07, No Iterations 205
time step continuity errors : sum local = 1.14743e-10, global = -6.8768e-20, cumulative = -1.64638e-18
[...]
DICPCG:  Solving for p, Initial residual = 4.16058e-07, Final residual = 4.16058e-07, No Iterations 0
time step continuity errors : sum local = 4.814e-11, global = -1.06234e-19, cumulative = -3.03256e-18
ExecutionTime = 110.25 s  ClockTime = 114 s

Time = 2.98375

Courant Number mean: 0.181158 max: 0.61255
smoothSolver:  Solving for Ux, Initial residual = 2.95298e-09, Final residual = 2.95298e-09, No Iterations 0
smoothSolver:  Solving for Uy, Initial residual = 7.95533e-09, Final residual = 7.95533e-09, No Iterations 0
DICPCG:  Solving for p, Initial residual = 7.2806e-07, Final residual = 7.2806e-07, No Iterations 0
time step continuity errors : sum local = 8.41432e-11, global = 1.45238e-20, cumulative = -3.01804e-18
DICPCG:  Solving for p, Initial residual = 9.25175e-07, Final residual = 9.25175e-07, No Iterations 0
time step continuity errors : sum local = 1.06889e-10, global = -4.11624e-20, cumulative = -3.0592e-18
ExecutionTime = 110.26 s  ClockTime = 114 s

Time = 2.98437

Courant Number mean: 0.181158 max: 0.61255
smoothSolver:  Solving for Ux, Initial residual = 2.47554e-09, Final residual = 2.47554e-09, No Iterations 0
smoothSolver:  Solving for Uy, Initial residual = 5.48168e-09, Final residual = 5.48168e-09, No Iterations 0
DICPCG:  Solving for p, Initial residual = 1.07206e-06, Final residual = 2.11003e-08, No Iterations 1
time step continuity errors : sum local = 2.56423e-12, global = 6.60495e-20, cumulative = -2.99315e-18
DICPCG:  Solving for p, Initial residual = 4.8691e-07, Final residual = 4.8691e-07, No Iterations 0
time step continuity errors : sum local = 5.63159e-11, global = 1.19824e-19, cumulative = -2.87332e-18
ExecutionTime = 110.26 s  ClockTime = 114 s

Time = 2.985

Courant Number mean: 0.181158 max: 0.61255
smoothSolver:  Solving for Ux, Initial residual = 3.13695e-09, Final residual = 3.13695e-09, No Iterations 0
smoothSolver:  Solving for Uy, Initial residual = 8.85458e-09, Final residual = 8.85458e-09, No Iterations 0
DICPCG:  Solving for p, Initial residual = 8.51954e-07, Final residual = 8.51954e-07, No Iterations 0
time step continuity errors : sum local = 9.84398e-11, global = -6.23644e-21, cumulative = -2.87956e-18
DICPCG:  Solving for p, Initial residual = 1.08331e-06, Final residual = 2.1255e-08, No Iterations 1
time step continuity errors : sum local = 2.58207e-12, global = -2.02464e-20, cumulative = -2.89981e-18
ExecutionTime = 110.27 s  ClockTime = 114 s

Time = 2.98562

Courant Number mean: 0.181158 max: 0.61255
smoothSolver:  Solving for Ux, Initial residual = 3.4623e-09, Final residual = 3.4623e-09, No Iterations 0
smoothSolver:  Solving for Uy, Initial residual = 1.03669e-08, Final residual = 1.03669e-08, No Iterations 0
DICPCG:  Solving for p, Initial residual = 4.57295e-07, Final residual = 4.57295e-07, No Iterations 0
time step continuity errors : sum local = 5.28985e-11, global = 4.45832e-20, cumulative = -2.85522e-18
DICPCG:  Solving for p, Initial residual = 7.44442e-07, Final residual = 7.44442e-07, No Iterations 0
time step continuity errors : sum local = 8.60335e-11, global = 9.17992e-20, cumulative = -2.76342e-18
ExecutionTime = 110.28 s  ClockTime = 114 s

Time = 2.98625

Courant Number mean: 0.181158 max: 0.61255
smoothSolver:  Solving for Ux, Initial residual = 2.6451e-09, Final residual = 2.6451e-09, No Iterations 0
smoothSolver:  Solving for Uy, Initial residual = 6.43882e-09, Final residual = 6.43882e-09, No Iterations 0
DICPCG:  Solving for p, Initial residual = 9.58395e-07, Final residual = 9.58395e-07, No Iterations 0
time step continuity errors : sum local = 1.10722e-10, global = -3.18127e-20, cumulative = -2.79524e-18
DICPCG:  Solving for p, Initial residual = 1.09645e-06, Final residual = 2.14199e-08, No Iterations 1
time step continuity errors : sum local = 2.60109e-12, global = -6.46111e-20, cumulative = -2.85985e-18
ExecutionTime = 110.3 s  ClockTime = 114 s

Time = 2.98687

Courant Number mean: 0.181158 max: 0.61255
smoothSolver:  Solving for Ux, Initial residual = 3.76131e-09, Final residual = 3.76131e-09, No Iterations 0
smoothSolver:  Solving for Uy, Initial residual = 1.17296e-08, Final residual = 1.17296e-08, No Iterations 0
DICPCG:  Solving for p, Initial residual = 5.34382e-07, Final residual = 5.34382e-07, No Iterations 0
time step continuity errors : sum local = 6.17939e-11, global = 1.26528e-19, cumulative = -2.73332e-18
DICPCG:  Solving for p, Initial residual = 8.71338e-07, Final residual = 8.71338e-07, No Iterations 0
time step continuity errors : sum local = 1.00677e-10, global = -1.03154e-20, cumulative = -2.74364e-18
ExecutionTime = 110.3 s  ClockTime = 114 s

Time = 2.9875

Courant Number mean: 0.181158 max: 0.61255
smoothSolver:  Solving for Ux, Initial residual = 2.75239e-09, Final residual = 2.75239e-09, No Iterations 0
smoothSolver:  Solving for Uy, Initial residual = 7.02843e-09, Final residual = 7.02843e-09, No Iterations 0
DICPCG:  Solving for p, Initial residual = 1.12241e-06, Final residual = 2.18195e-08, No Iterations 1
time step continuity errors : sum local = 2.64719e-12, global = 3.54938e-20, cumulative = -2.70814e-18
DICPCG:  Solving for p, Initial residual = 4.47124e-07, Final residual = 4.47124e-07, No Iterations 0
time step continuity errors : sum local = 5.17247e-11, global = -7.42309e-20, cumulative = -2.78237e-18
ExecutionTime = 110.31 s  ClockTime = 114 s

Time = 2.98812

Courant Number mean: 0.181158 max: 0.61255
smoothSolver:  Solving for Ux, Initial residual = 3.01152e-09, Final residual = 3.01152e-09, No Iterations 0
smoothSolver:  Solving for Uy, Initial residual = 8.31702e-09, Final residual = 8.31702e-09, No Iterations 0
DICPCG:  Solving for p, Initial residual = 7.82668e-07, Final residual = 7.82668e-07, No Iterations 0
time step continuity errors : sum local = 9.04445e-11, global = -8.20347e-20, cumulative = -2.86441e-18
DICPCG:  Solving for p, Initial residual = 9.94739e-07, Final residual = 9.94739e-07, No Iterations 0
time step continuity errors : sum local = 1.14916e-10, global = -4.28937e-20, cumulative = -2.9073e-18
ExecutionTime = 110.32 s  ClockTime = 114 s

Time = 2.98875

Courant Number mean: 0.181158 max: 0.61255
smoothSolver:  Solving for Ux, Initial residual = 2.47683e-09, Final residual = 2.47683e-09, No Iterations 0
smoothSolver:  Solving for Uy, Initial residual = 5.5935e-09, Final residual = 5.5935e-09, No Iterations 0
DICPCG:  Solving for p, Initial residual = 1.15282e-06, Final residual = 2.22871e-08, No Iterations 1
time step continuity errors : sum local = 2.70115e-12, global = 1.40765e-20, cumulative = -2.89323e-18
DICPCG:  Solving for p, Initial residual = 5.23498e-07, Final residual = 5.23498e-07, No Iterations 0
time step continuity errors : sum local = 6.05379e-11, global = -1.10997e-20, cumulative = -2.90432e-18
ExecutionTime = 110.33 s  ClockTime = 114 s

Time = 2.98937

Courant Number mean: 0.181158 max: 0.61255
smoothSolver:  Solving for Ux, Initial residual = 3.21687e-09, Final residual = 3.21687e-09, No Iterations 0
smoothSolver:  Solving for Uy, Initial residual = 9.29814e-09, Final residual = 9.29814e-09, No Iterations 0
DICPCG:  Solving for p, Initial residual = 9.16193e-07, Final residual = 9.16193e-07, No Iterations 0
time step continuity errors : sum local = 1.05853e-10, global = -5.25189e-20, cumulative = -2.95684e-18
DICPCG:  Solving for p, Initial residual = 1.16514e-06, Final residual = 2.24588e-08, No Iterations 1
time step continuity errors : sum local = 2.72095e-12, global = -2.20531e-21, cumulative = -2.95905e-18
ExecutionTime = 110.34 s  ClockTime = 114 s

Time = 2.99

Courant Number mean: 0.181158 max: 0.61255
smoothSolver:  Solving for Ux, Initial residual = 3.57423e-09, Final residual = 3.57423e-09, No Iterations 0
smoothSolver:  Solving for Uy, Initial residual = 1.09433e-08, Final residual = 1.09433e-08, No Iterations 0
DICPCG:  Solving for p, Initial residual = 4.91773e-07, Final residual = 4.91773e-07, No Iterations 0
time step continuity errors : sum local = 5.6877e-11, global = -8.63436e-20, cumulative = -3.04539e-18
DICPCG:  Solving for p, Initial residual = 8.00804e-07, Final residual = 8.00804e-07, No Iterations 0
time step continuity errors : sum local = 9.25374e-11, global = -7.12165e-20, cumulative = -3.11661e-18
ExecutionTime = 110.35 s  ClockTime = 114 s

Time = 2.99062

Courant Number mean: 0.181158 max: 0.61255
smoothSolver:  Solving for Ux, Initial residual = 2.66972e-09, Final residual = 2.66972e-09, No Iterations 0
smoothSolver:  Solving for Uy, Initial residual = 6.66406e-09, Final residual = 6.66406e-09, No Iterations 0
DICPCG:  Solving for p, Initial residual = 1.03104e-06, Final residual = 2.02988e-08, No Iterations 1
time step continuity errors : sum local = 2.47169e-12, global = -1.34612e-20, cumulative = -3.13007e-18
DICPCG:  Solving for p, Initial residual = 4.10999e-07, Final residual = 4.10999e-07, No Iterations 0
time step continuity errors : sum local = 4.75562e-11, global = 5.45782e-20, cumulative = -3.07549e-18
ExecutionTime = 110.36 s  ClockTime = 114 s

Time = 2.99125

Courant Number mean: 0.181158 max: 0.61255
smoothSolver:  Solving for Ux, Initial residual = 2.90209e-09, Final residual = 2.90209e-09, No Iterations 0
smoothSolver:  Solving for Uy, Initial residual = 7.83692e-09, Final residual = 7.83692e-09, No Iterations 0
DICPCG:  Solving for p, Initial residual = 7.19208e-07, Final residual = 7.19208e-07, No Iterations 0
time step continuity errors : sum local = 8.31216e-11, global = -1.06322e-19, cumulative = -3.18181e-18
DICPCG:  Solving for p, Initial residual = 9.13928e-07, Final residual = 9.13928e-07, No Iterations 0
time step continuity errors : sum local = 1.05591e-10, global = 7.53138e-20, cumulative = -3.1065e-18
ExecutionTime = 110.36 s  ClockTime = 114 s

Time = 2.99187

Courant Number mean: 0.181158 max: 0.61255
smoothSolver:  Solving for Ux, Initial residual = 2.42598e-09, Final residual = 2.42598e-09, No Iterations 0
smoothSolver:  Solving for Uy, Initial residual = 5.38319e-09, Final residual = 5.38319e-09, No Iterations 0
DICPCG:  Solving for p, Initial residual = 1.05905e-06, Final residual = 2.06888e-08, No Iterations 1
time step continuity errors : sum local = 2.51668e-12, global = 3.14287e-20, cumulative = -3.07507e-18
DICPCG:  Solving for p, Initial residual = 4.80869e-07, Final residual = 4.80869e-07, No Iterations 0
time step continuity errors : sum local = 5.56187e-11, global = 1.12488e-20, cumulative = -3.06382e-18
ExecutionTime = 110.37 s  ClockTime = 114 s

Time = 2.9925

Courant Number mean: 0.181158 max: 0.61255
smoothSolver:  Solving for Ux, Initial residual = 3.08179e-09, Final residual = 3.08179e-09, No Iterations 0
smoothSolver:  Solving for Uy, Initial residual = 8.72591e-09, Final residual = 8.72591e-09, No Iterations 0
DICPCG:  Solving for p, Initial residual = 8.41535e-07, Final residual = 8.41535e-07, No Iterations 0
time step continuity errors : sum local = 9.72375e-11, global = 1.37006e-19, cumulative = -2.92682e-18
DICPCG:  Solving for p, Initial residual = 1.07009e-06, Final residual = 2.08461e-08, No Iterations 1
time step continuity errors : sum local = 2.53483e-12, global = 6.36791e-20, cumulative = -2.86314e-18
ExecutionTime = 110.38 s  ClockTime = 114 s

Time = 2.99312

Courant Number mean: 0.181158 max: 0.61255
smoothSolver:  Solving for Ux, Initial residual = 3.40511e-09, Final residual = 3.40511e-09, No Iterations 0
smoothSolver:  Solving for Uy, Initial residual = 1.02218e-08, Final residual = 1.02218e-08, No Iterations 0
DICPCG:  Solving for p, Initial residual = 4.51656e-07, Final residual = 4.51656e-07, No Iterations 0
time step continuity errors : sum local = 5.22477e-11, global = 4.861e-20, cumulative = -2.81453e-18
DICPCG:  Solving for p, Initial residual = 7.35313e-07, Final residual = 7.35313e-07, No Iterations 0
time step continuity errors : sum local = 8.498e-11, global = 2.1132e-20, cumulative = -2.7934e-18
ExecutionTime = 110.39 s  ClockTime = 114 s

Time = 2.99375

Courant Number mean: 0.181158 max: 0.61255
smoothSolver:  Solving for Ux, Initial residual = 2.59455e-09, Final residual = 2.59455e-09, No Iterations 0
smoothSolver:  Solving for Uy, Initial residual = 6.33503e-09, Final residual = 6.33503e-09, No Iterations 0
DICPCG:  Solving for p, Initial residual = 9.46627e-07, Final residual = 9.46627e-07, No Iterations 0
time step continuity errors : sum local = 1.09364e-10, global = 2.05475e-20, cumulative = -2.77285e-18
DICPCG:  Solving for p, Initial residual = 1.08295e-06, Final residual = 2.10151e-08, No Iterations 1
time step continuity errors : sum local = 2.55432e-12, global = -8.38867e-20, cumulative = -2.85674e-18
ExecutionTime = 110.4 s  ClockTime = 114 s

Time = 2.99437

Courant Number mean: 0.181158 max: 0.61255
smoothSolver:  Solving for Ux, Initial residual = 3.70132e-09, Final residual = 3.70132e-09, No Iterations 0
smoothSolver:  Solving for Uy, Initial residual = 1.15693e-08, Final residual = 1.15693e-08, No Iterations 0
DICPCG:  Solving for p, Initial residual = 5.27752e-07, Final residual = 5.27752e-07, No Iterations 0
time step continuity errors : sum local = 6.10288e-11, global = -1.11534e-19, cumulative = -2.96827e-18
DICPCG:  Solving for p, Initial residual = 8.60579e-07, Final residual = 8.60579e-07, No Iterations 0
time step continuity errors : sum local = 9.9435e-11, global = 5.76431e-20, cumulative = -2.91063e-18
ExecutionTime = 110.42 s  ClockTime = 114 s

Time = 2.995

Courant Number mean: 0.181158 max: 0.61255
smoothSolver:  Solving for Ux, Initial residual = 2.70102e-09, Final residual = 2.70102e-09, No Iterations 0
smoothSolver:  Solving for Uy, Initial residual = 6.91839e-09, Final residual = 6.91839e-09, No Iterations 0
DICPCG:  Solving for p, Initial residual = 1.10854e-06, Final residual = 2.14275e-08, No Iterations 1
time step continuity errors : sum local = 2.60191e-12, global = -6.75828e-20, cumulative = -2.97821e-18
DICPCG:  Solving for p, Initial residual = 4.41583e-07, Final residual = 4.41583e-07, No Iterations 0
time step continuity errors : sum local = 5.10854e-11, global = -7.48952e-21, cumulative = -2.9857e-18
ExecutionTime = 110.43 s  ClockTime = 114 s

Time = 2.99562

Courant Number mean: 0.181158 max: 0.61255
smoothSolver:  Solving for Ux, Initial residual = 2.9595e-09, Final residual = 2.9595e-09, No Iterations 0
smoothSolver:  Solving for Uy, Initial residual = 8.19515e-09, Final residual = 8.19515e-09, No Iterations 0
DICPCG:  Solving for p, Initial residual = 7.72964e-07, Final residual = 7.72964e-07, No Iterations 0
time step continuity errors : sum local = 8.93248e-11, global = -5.90381e-20, cumulative = -3.04474e-18
DICPCG:  Solving for p, Initial residual = 9.82395e-07, Final residual = 9.82395e-07, No Iterations 0
time step continuity errors : sum local = 1.13492e-10, global = 1.62133e-19, cumulative = -2.8826e-18
ExecutionTime = 110.43 s  ClockTime = 114 s

Time = 2.99625

Courant Number mean: 0.181158 max: 0.61255
smoothSolver:  Solving for Ux, Initial residual = 2.42738e-09, Final residual = 2.42738e-09, No Iterations 0
smoothSolver:  Solving for Uy, Initial residual = 5.49493e-09, Final residual = 5.49493e-09, No Iterations 0
DICPCG:  Solving for p, Initial residual = 1.13851e-06, Final residual = 2.18881e-08, No Iterations 1
time step continuity errors : sum local = 2.65505e-12, global = -6.45336e-20, cumulative = -2.94714e-18
DICPCG:  Solving for p, Initial residual = 5.16989e-07, Final residual = 5.16989e-07, No Iterations 0
time step continuity errors : sum local = 5.97868e-11, global = 4.42594e-20, cumulative = -2.90288e-18
ExecutionTime = 110.44 s  ClockTime = 114 s

Time = 2.99687

Courant Number mean: 0.181158 max: 0.61255
smoothSolver:  Solving for Ux, Initial residual = 3.16076e-09, Final residual = 3.16076e-09, No Iterations 0
smoothSolver:  Solving for Uy, Initial residual = 9.16252e-09, Final residual = 9.16252e-09, No Iterations 0
DICPCG:  Solving for p, Initial residual = 9.04828e-07, Final residual = 9.04828e-07, No Iterations 0
time step continuity errors : sum local = 1.04541e-10, global = -2.47221e-20, cumulative = -2.9276e-18
DICPCG:  Solving for p, Initial residual = 1.15067e-06, Final residual = 2.20874e-08, No Iterations 1
time step continuity errors : sum local = 2.67805e-12, global = -1.41351e-19, cumulative = -3.06895e-18
ExecutionTime = 110.45 s  ClockTime = 114 s

Time = 2.9975

Courant Number mean: 0.181158 max: 0.61255
smoothSolver:  Solving for Ux, Initial residual = 3.51658e-09, Final residual = 3.51658e-09, No Iterations 0
smoothSolver:  Solving for Uy, Initial residual = 1.07904e-08, Final residual = 1.07904e-08, No Iterations 0
DICPCG:  Solving for p, Initial residual = 4.85617e-07, Final residual = 4.85617e-07, No Iterations 0
time step continuity errors : sum local = 5.61666e-11, global = 1.54737e-19, cumulative = -2.91421e-18
DICPCG:  Solving for p, Initial residual = 7.90727e-07, Final residual = 7.90727e-07, No Iterations 0
time step continuity errors : sum local = 9.13744e-11, global = 5.76279e-20, cumulative = -2.85659e-18
ExecutionTime = 110.46 s  ClockTime = 114 s

Time = 2.99812

Courant Number mean: 0.181158 max: 0.61255
smoothSolver:  Solving for Ux, Initial residual = 2.61805e-09, Final residual = 2.61805e-09, No Iterations 0
smoothSolver:  Solving for Uy, Initial residual = 6.55793e-09, Final residual = 6.55793e-09, No Iterations 0
DICPCG:  Solving for p, Initial residual = 1.0181e-06, Final residual = 1.99443e-08, No Iterations 1
time step continuity errors : sum local = 2.43072e-12, global = -2.40887e-20, cumulative = -2.88067e-18
DICPCG:  Solving for p, Initial residual = 4.05827e-07, Final residual = 4.05827e-07, No Iterations 0
time step continuity errors : sum local = 4.69593e-11, global = 4.1888e-20, cumulative = -2.83879e-18
ExecutionTime = 110.47 s  ClockTime = 114 s

Time = 2.99875

Courant Number mean: 0.181158 max: 0.61255
smoothSolver:  Solving for Ux, Initial residual = 2.85051e-09, Final residual = 2.85051e-09, No Iterations 0
smoothSolver:  Solving for Uy, Initial residual = 7.71726e-09, Final residual = 7.71726e-09, No Iterations 0
DICPCG:  Solving for p, Initial residual = 7.10123e-07, Final residual = 7.10123e-07, No Iterations 0
time step continuity errors : sum local = 8.20733e-11, global = -5.12905e-20, cumulative = -2.89008e-18
DICPCG:  Solving for p, Initial residual = 9.02362e-07, Final residual = 9.02362e-07, No Iterations 0
time step continuity errors : sum local = 1.04256e-10, global = -4.97886e-20, cumulative = -2.93987e-18
ExecutionTime = 110.47 s  ClockTime = 114 s

Time = 2.99937

Courant Number mean: 0.181158 max: 0.61255
smoothSolver:  Solving for Ux, Initial residual = 2.37703e-09, Final residual = 2.37703e-09, No Iterations 0
smoothSolver:  Solving for Uy, Initial residual = 5.28662e-09, Final residual = 5.28662e-09, No Iterations 0
DICPCG:  Solving for p, Initial residual = 1.04563e-06, Final residual = 2.03667e-08, No Iterations 1
time step continuity errors : sum local = 2.47946e-12, global = -9.58969e-20, cumulative = -3.03576e-18
DICPCG:  Solving for p, Initial residual = 4.74724e-07, Final residual = 4.74724e-07, No Iterations 0
time step continuity errors : sum local = 5.49095e-11, global = 6.42666e-20, cumulative = -2.9715e-18
ExecutionTime = 110.48 s  ClockTime = 114 s

Time = 3

Courant Number mean: 0.181158 max: 0.61255
smoothSolver:  Solving for Ux, Initial residual = 3.02724e-09, Final residual = 3.02724e-09, No Iterations 0
smoothSolver:  Solving for Uy, Initial residual = 8.59913e-09, Final residual = 8.59913e-09, No Iterations 0
DICPCG:  Solving for p, Initial residual = 8.30767e-07, Final residual = 8.30767e-07, No Iterations 0
time step continuity errors : sum local = 9.59949e-11, global = -4.07282e-20, cumulative = -3.01222e-18
DICPCG:  Solving for p, Initial residual = 1.05639e-06, Final residual = 2.05115e-08, No Iterations 1
time step continuity errors : sum local = 2.49616e-12, global = 1.46577e-19, cumulative = -2.86565e-18
ExecutionTime = 110.55 s  ClockTime = 114 s

End

