/*---------------------------------------------------------------------------*\
  =========                 |
  \\      /  F ield         | OpenFOAM: The Open Source CFD Toolbox
   \\    /   O peration     | Website:  https://openfoam.org
    \\  /    A nd           | Version:  7
     \\/     M anipulation  |
\*---------------------------------------------------------------------------*/
Build  : 7
Exec   : icoFoam
Date   : Feb 08 2025
Time   : 01:37:57
Host   : "c207-034.frontera.tacc.utexas.edu"
PID    : 20444
I/O    : uncollated
Case   : /work2/10249/ctshep3141/frontera/coe347/COE-347-Open-Foam/of-project-1/cavity-Re-10/40x40
nProcs : 1
sigFpe : Enabling floating point exception trapping (FOAM_SIGFPE).
fileModificationChecking : Monitoring run-time modified files using timeStampMaster (fileModificationSkew 10)
allowSystemOperations : Allowing user-supplied system call operations

// * * * * * * * * * * * * * * * * * * * * * * * * * * * * * * * * * * * * * //
Create time

Create mesh for time = 0.5

Reading transportProperties

Reading field p

Reading field U

Reading/calculating face flux field phi


Starting time loop

Time = 0.5025

Courant Number mean: 0.224824 max: 0.926452
smoothSolver:  Solving for Ux, Initial residual = 3.33851e-06, Final residual = 3.33851e-06, No Iterations 0
smoothSolver:  Solving for Uy, Initial residual = 7.56841e-06, Final residual = 7.56841e-06, No Iterations 0
DICPCG:  Solving for p, Initial residual = 4.03383e-05, Final residual = 1.53325e-06, No Iterations 4
time step continuity errors : sum local = 3.82533e-09, global = -7.08271e-22, cumulative = -7.08271e-22
DICPCG:  Solving for p, Initial residual = 2.69219e-05, Final residual = 9.1736e-07, No Iterations 4
time step continuity errors : sum local = 2.46962e-09, global = -6.68982e-20, cumulative = -6.76065e-20
ExecutionTime = 0.03 s  ClockTime = 0 s

Time = 0.505

Courant Number mean: 0.224824 max: 0.926451
smoothSolver:  Solving for Ux, Initial residual = 1.39161e-06, Final residual = 1.39161e-06, No Iterations 0
smoothSolver:  Solving for Uy, Initial residual = 3.15624e-06, Final residual = 3.15624e-06, No Iterations 0
DICPCG:  Solving for p, Initial residual = 1.54709e-05, Final residual = 6.9225e-07, No Iterations 4
time step continuity errors : sum local = 1.97993e-09, global = 9.6245e-19, cumulative = 8.94844e-19
DICPCG:  Solving for p, Initial residual = 9.09253e-06, Final residual = 8.75863e-07, No Iterations 2
time step continuity errors : sum local = 2.38585e-09, global = 2.2978e-19, cumulative = 1.12462e-18
ExecutionTime = 0.03 s  ClockTime = 0 s

Time = 0.5075

Courant Number mean: 0.224824 max: 0.926451
smoothSolver:  Solving for Ux, Initial residual = 1.02752e-06, Final residual = 1.02752e-06, No Iterations 0
smoothSolver:  Solving for Uy, Initial residual = 2.49582e-06, Final residual = 2.49582e-06, No Iterations 0
DICPCG:  Solving for p, Initial residual = 6.39934e-06, Final residual = 5.7786e-07, No Iterations 1
time step continuity errors : sum local = 1.72705e-09, global = 3.63086e-19, cumulative = 1.48771e-18
DICPCG:  Solving for p, Initial residual = 4.99735e-06, Final residual = 6.84583e-07, No Iterations 1
time step continuity errors : sum local = 1.96119e-09, global = -2.44235e-19, cumulative = 1.24347e-18
ExecutionTime = 0.03 s  ClockTime = 0 s

Time = 0.51

Courant Number mean: 0.224824 max: 0.926451
smoothSolver:  Solving for Ux, Initial residual = 8.9887e-07, Final residual = 8.9887e-07, No Iterations 0
smoothSolver:  Solving for Uy, Initial residual = 2.26339e-06, Final residual = 2.26339e-06, No Iterations 0
DICPCG:  Solving for p, Initial residual = 4.10315e-06, Final residual = 8.29531e-07, No Iterations 1
time step continuity errors : sum local = 2.27897e-09, global = -3.77587e-19, cumulative = 8.65887e-19
DICPCG:  Solving for p, Initial residual = 3.56455e-06, Final residual = 9.39484e-07, No Iterations 1
time step continuity errors : sum local = 2.51915e-09, global = 8.82752e-19, cumulative = 1.74864e-18
ExecutionTime = 0.04 s  ClockTime = 0 s

Time = 0.5125

Courant Number mean: 0.224824 max: 0.926451
smoothSolver:  Solving for Ux, Initial residual = 8.43291e-07, Final residual = 8.43291e-07, No Iterations 0
smoothSolver:  Solving for Uy, Initial residual = 2.13363e-06, Final residual = 2.13363e-06, No Iterations 0
DICPCG:  Solving for p, Initial residual = 3.1417e-06, Final residual = 8.86463e-07, No Iterations 2
time step continuity errors : sum local = 2.37263e-09, global = 4.31013e-20, cumulative = 1.79174e-18
DICPCG:  Solving for p, Initial residual = 2.38215e-06, Final residual = 4.06716e-07, No Iterations 4
time step continuity errors : sum local = 1.31874e-09, global = -1.81819e-19, cumulative = 1.60992e-18
ExecutionTime = 0.04 s  ClockTime = 0 s

Time = 0.515

Courant Number mean: 0.224824 max: 0.926451
smoothSolver:  Solving for Ux, Initial residual = 8.33403e-07, Final residual = 8.33403e-07, No Iterations 0
smoothSolver:  Solving for Uy, Initial residual = 2.07331e-06, Final residual = 2.07331e-06, No Iterations 0
DICPCG:  Solving for p, Initial residual = 1.88478e-06, Final residual = 5.52441e-07, No Iterations 2
time step continuity errors : sum local = 1.63312e-09, global = -2.11603e-19, cumulative = 1.39832e-18
DICPCG:  Solving for p, Initial residual = 1.6657e-06, Final residual = 4.35591e-07, No Iterations 2
time step continuity errors : sum local = 1.37485e-09, global = 3.41615e-19, cumulative = 1.73993e-18
ExecutionTime = 0.04 s  ClockTime = 0 s

Time = 0.5175

Courant Number mean: 0.224824 max: 0.926451
smoothSolver:  Solving for Ux, Initial residual = 7.9533e-07, Final residual = 7.9533e-07, No Iterations 0
smoothSolver:  Solving for Uy, Initial residual = 1.98234e-06, Final residual = 1.98234e-06, No Iterations 0
DICPCG:  Solving for p, Initial residual = 1.46758e-06, Final residual = 7.05507e-07, No Iterations 1
time step continuity errors : sum local = 1.96673e-09, global = -3.2105e-21, cumulative = 1.73672e-18
DICPCG:  Solving for p, Initial residual = 1.64505e-06, Final residual = 4.14656e-07, No Iterations 1
time step continuity errors : sum local = 1.32451e-09, global = 1.00699e-19, cumulative = 1.83742e-18
ExecutionTime = 0.04 s  ClockTime = 0 s

Time = 0.52

Courant Number mean: 0.224824 max: 0.926451
smoothSolver:  Solving for Ux, Initial residual = 7.795e-07, Final residual = 7.795e-07, No Iterations 0
smoothSolver:  Solving for Uy, Initial residual = 1.93863e-06, Final residual = 1.93863e-06, No Iterations 0
DICPCG:  Solving for p, Initial residual = 1.18341e-06, Final residual = 5.47732e-07, No Iterations 1
time step continuity errors : sum local = 1.61772e-09, global = 2.3813e-19, cumulative = 2.07555e-18
DICPCG:  Solving for p, Initial residual = 1.20948e-06, Final residual = 4.85349e-07, No Iterations 1
time step continuity errors : sum local = 1.4799e-09, global = 6.07182e-19, cumulative = 2.68273e-18
ExecutionTime = 0.04 s  ClockTime = 0 s

Time = 0.5225

Courant Number mean: 0.224824 max: 0.926451
smoothSolver:  Solving for Ux, Initial residual = 7.64613e-07, Final residual = 7.64613e-07, No Iterations 0
smoothSolver:  Solving for Uy, Initial residual = 1.90422e-06, Final residual = 1.90422e-06, No Iterations 0
DICPCG:  Solving for p, Initial residual = 1.04809e-06, Final residual = 4.99208e-07, No Iterations 1
time step continuity errors : sum local = 1.51047e-09, global = -1.73243e-19, cumulative = 2.50949e-18
DICPCG:  Solving for p, Initial residual = 9.7882e-07, Final residual = 9.7882e-07, No Iterations 0
time step continuity errors : sum local = 2.56928e-09, global = -6.77357e-20, cumulative = 2.44175e-18
ExecutionTime = 0.04 s  ClockTime = 0 s

Time = 0.525

Courant Number mean: 0.224825 max: 0.926451
smoothSolver:  Solving for Ux, Initial residual = 7.52233e-07, Final residual = 7.52233e-07, No Iterations 0
smoothSolver:  Solving for Uy, Initial residual = 1.87331e-06, Final residual = 1.87331e-06, No Iterations 0
DICPCG:  Solving for p, Initial residual = 6.95104e-07, Final residual = 6.95104e-07, No Iterations 0
time step continuity errors : sum local = 1.94294e-09, global = 3.77432e-19, cumulative = 2.81919e-18
DICPCG:  Solving for p, Initial residual = 1.07282e-06, Final residual = 6.67639e-07, No Iterations 1
time step continuity errors : sum local = 1.88237e-09, global = -4.28035e-19, cumulative = 2.39115e-18
ExecutionTime = 0.04 s  ClockTime = 0 s

Time = 0.5275

Courant Number mean: 0.224825 max: 0.926451
smoothSolver:  Solving for Ux, Initial residual = 7.39486e-07, Final residual = 7.39486e-07, No Iterations 0
smoothSolver:  Solving for Uy, Initial residual = 1.84253e-06, Final residual = 1.84253e-06, No Iterations 0
DICPCG:  Solving for p, Initial residual = 1.14982e-06, Final residual = 5.2576e-07, No Iterations 1
time step continuity errors : sum local = 1.56931e-09, global = 1.98973e-19, cumulative = 2.59012e-18
DICPCG:  Solving for p, Initial residual = 8.42495e-07, Final residual = 8.42495e-07, No Iterations 0
time step continuity errors : sum local = 2.26855e-09, global = 2.89891e-19, cumulative = 2.88002e-18
ExecutionTime = 0.04 s  ClockTime = 0 s

Time = 0.53

Courant Number mean: 0.224825 max: 0.926451
smoothSolver:  Solving for Ux, Initial residual = 7.2781e-07, Final residual = 7.2781e-07, No Iterations 0
smoothSolver:  Solving for Uy, Initial residual = 1.81397e-06, Final residual = 1.81397e-06, No Iterations 0
DICPCG:  Solving for p, Initial residual = 8.60325e-07, Final residual = 8.60325e-07, No Iterations 0
time step continuity errors : sum local = 2.30792e-09, global = 2.30204e-19, cumulative = 3.11022e-18
DICPCG:  Solving for p, Initial residual = 1.05721e-06, Final residual = 7.06274e-07, No Iterations 1
time step continuity errors : sum local = 1.968e-09, global = -2.22481e-19, cumulative = 2.88774e-18
ExecutionTime = 0.05 s  ClockTime = 0 s

Time = 0.5325

Courant Number mean: 0.224825 max: 0.926451
smoothSolver:  Solving for Ux, Initial residual = 7.15201e-07, Final residual = 7.15201e-07, No Iterations 0
smoothSolver:  Solving for Uy, Initial residual = 1.78439e-06, Final residual = 1.78439e-06, No Iterations 0
DICPCG:  Solving for p, Initial residual = 1.18116e-06, Final residual = 6.03721e-07, No Iterations 1
time step continuity errors : sum local = 1.74182e-09, global = -2.79292e-19, cumulative = 2.60845e-18
DICPCG:  Solving for p, Initial residual = 8.6547e-07, Final residual = 8.6547e-07, No Iterations 0
time step continuity errors : sum local = 2.31969e-09, global = -3.89731e-19, cumulative = 2.21872e-18
ExecutionTime = 0.05 s  ClockTime = 0 s

Time = 0.535

Courant Number mean: 0.224825 max: 0.926451
smoothSolver:  Solving for Ux, Initial residual = 7.03208e-07, Final residual = 7.03208e-07, No Iterations 0
smoothSolver:  Solving for Uy, Initial residual = 1.75543e-06, Final residual = 1.75543e-06, No Iterations 0
DICPCG:  Solving for p, Initial residual = 1.02695e-06, Final residual = 6.7362e-07, No Iterations 1
time step continuity errors : sum local = 1.89648e-09, global = -5.51109e-20, cumulative = 2.1636e-18
DICPCG:  Solving for p, Initial residual = 1.02113e-06, Final residual = 6.31347e-07, No Iterations 1
time step continuity errors : sum local = 1.80359e-09, global = 8.73037e-20, cumulative = 2.25091e-18
ExecutionTime = 0.05 s  ClockTime = 0 s

Time = 0.5375

Courant Number mean: 0.224825 max: 0.926451
smoothSolver:  Solving for Ux, Initial residual = 6.89343e-07, Final residual = 6.89343e-07, No Iterations 0
smoothSolver:  Solving for Uy, Initial residual = 1.72392e-06, Final residual = 1.72392e-06, No Iterations 0
DICPCG:  Solving for p, Initial residual = 8.76086e-07, Final residual = 8.76086e-07, No Iterations 0
time step continuity errors : sum local = 2.34391e-09, global = 7.38362e-20, cumulative = 2.32474e-18
DICPCG:  Solving for p, Initial residual = 9.81309e-07, Final residual = 9.81309e-07, No Iterations 0
time step continuity errors : sum local = 2.57621e-09, global = -5.41839e-19, cumulative = 1.78291e-18
ExecutionTime = 0.05 s  ClockTime = 0 s

Time = 0.54

Courant Number mean: 0.224825 max: 0.926451
smoothSolver:  Solving for Ux, Initial residual = 6.80537e-07, Final residual = 6.80537e-07, No Iterations 0
smoothSolver:  Solving for Uy, Initial residual = 1.70111e-06, Final residual = 1.70111e-06, No Iterations 0
DICPCG:  Solving for p, Initial residual = 1.09233e-06, Final residual = 6.03632e-07, No Iterations 1
time step continuity errors : sum local = 1.7431e-09, global = -4.3246e-19, cumulative = 1.35044e-18
DICPCG:  Solving for p, Initial residual = 9.87603e-07, Final residual = 9.87603e-07, No Iterations 0
time step continuity errors : sum local = 2.59088e-09, global = -6.40326e-19, cumulative = 7.10119e-19
ExecutionTime = 0.05 s  ClockTime = 0 s

Time = 0.5425

Courant Number mean: 0.224825 max: 0.926451
smoothSolver:  Solving for Ux, Initial residual = 6.69973e-07, Final residual = 6.69973e-07, No Iterations 0
smoothSolver:  Solving for Uy, Initial residual = 1.67551e-06, Final residual = 1.67551e-06, No Iterations 0
DICPCG:  Solving for p, Initial residual = 1.28699e-06, Final residual = 5.35319e-07, No Iterations 1
time step continuity errors : sum local = 1.59301e-09, global = 3.68178e-19, cumulative = 1.0783e-18
DICPCG:  Solving for p, Initial residual = 8.67943e-07, Final residual = 8.67943e-07, No Iterations 0
time step continuity errors : sum local = 2.32736e-09, global = 1.36785e-19, cumulative = 1.21508e-18
ExecutionTime = 0.05 s  ClockTime = 0 s

Time = 0.545

Courant Number mean: 0.224825 max: 0.926451
smoothSolver:  Solving for Ux, Initial residual = 6.60845e-07, Final residual = 6.60845e-07, No Iterations 0
smoothSolver:  Solving for Uy, Initial residual = 1.65233e-06, Final residual = 1.65233e-06, No Iterations 0
DICPCG:  Solving for p, Initial residual = 1.1433e-06, Final residual = 5.59249e-07, No Iterations 1
time step continuity errors : sum local = 1.6466e-09, global = -3.73503e-19, cumulative = 8.41579e-19
DICPCG:  Solving for p, Initial residual = 8.74559e-07, Final residual = 8.74559e-07, No Iterations 0
time step continuity errors : sum local = 2.34276e-09, global = 8.61622e-19, cumulative = 1.7032e-18
ExecutionTime = 0.06 s  ClockTime = 0 s

Time = 0.5475

Courant Number mean: 0.224825 max: 0.926451
smoothSolver:  Solving for Ux, Initial residual = 6.50715e-07, Final residual = 6.50715e-07, No Iterations 0
smoothSolver:  Solving for Uy, Initial residual = 1.62699e-06, Final residual = 1.62699e-06, No Iterations 0
DICPCG:  Solving for p, Initial residual = 1.1369e-06, Final residual = 5.40542e-07, No Iterations 1
time step continuity errors : sum local = 1.60611e-09, global = -7.23731e-20, cumulative = 1.63083e-18
DICPCG:  Solving for p, Initial residual = 8.66039e-07, Final residual = 8.66039e-07, No Iterations 0
time step continuity errors : sum local = 2.32476e-09, global = -2.28969e-19, cumulative = 1.40186e-18
ExecutionTime = 0.06 s  ClockTime = 0 s

Time = 0.55

Courant Number mean: 0.224825 max: 0.926451
smoothSolver:  Solving for Ux, Initial residual = 6.4166e-07, Final residual = 6.4166e-07, No Iterations 0
smoothSolver:  Solving for Uy, Initial residual = 1.60363e-06, Final residual = 1.60363e-06, No Iterations 0
DICPCG:  Solving for p, Initial residual = 1.13471e-06, Final residual = 5.19179e-07, No Iterations 1
time step continuity errors : sum local = 1.55971e-09, global = -2.9292e-19, cumulative = 1.10894e-18
DICPCG:  Solving for p, Initial residual = 8.35187e-07, Final residual = 8.35187e-07, No Iterations 0
time step continuity errors : sum local = 2.25741e-09, global = -3.33969e-19, cumulative = 7.7497e-19
ExecutionTime = 0.07 s  ClockTime = 0 s

Time = 0.5525

Courant Number mean: 0.224825 max: 0.926451
smoothSolver:  Solving for Ux, Initial residual = 6.32106e-07, Final residual = 6.32106e-07, No Iterations 0
smoothSolver:  Solving for Uy, Initial residual = 1.5792e-06, Final residual = 1.5792e-06, No Iterations 0
DICPCG:  Solving for p, Initial residual = 1.10062e-06, Final residual = 5.01108e-07, No Iterations 1
time step continuity errors : sum local = 1.52052e-09, global = -5.91021e-20, cumulative = 7.15868e-19
DICPCG:  Solving for p, Initial residual = 8.13079e-07, Final residual = 8.13079e-07, No Iterations 0
time step continuity errors : sum local = 2.2093e-09, global = -4.81269e-19, cumulative = 2.34599e-19
ExecutionTime = 0.07 s  ClockTime = 0 s

Time = 0.555

Courant Number mean: 0.224825 max: 0.926451
smoothSolver:  Solving for Ux, Initial residual = 6.23054e-07, Final residual = 6.23054e-07, No Iterations 0
smoothSolver:  Solving for Uy, Initial residual = 1.55547e-06, Final residual = 1.55547e-06, No Iterations 0
DICPCG:  Solving for p, Initial residual = 1.07354e-06, Final residual = 4.79486e-07, No Iterations 1
time step continuity errors : sum local = 1.4734e-09, global = 5.5342e-19, cumulative = 7.88019e-19
DICPCG:  Solving for p, Initial residual = 7.79163e-07, Final residual = 7.79163e-07, No Iterations 0
time step continuity errors : sum local = 2.13503e-09, global = -3.36792e-19, cumulative = 4.51227e-19
ExecutionTime = 0.07 s  ClockTime = 0 s

Time = 0.5575

Courant Number mean: 0.224825 max: 0.926451
smoothSolver:  Solving for Ux, Initial residual = 6.13717e-07, Final residual = 6.13717e-07, No Iterations 0
smoothSolver:  Solving for Uy, Initial residual = 1.53133e-06, Final residual = 1.53133e-06, No Iterations 0
DICPCG:  Solving for p, Initial residual = 1.03599e-06, Final residual = 4.56832e-07, No Iterations 1
time step continuity errors : sum local = 1.42389e-09, global = 1.36061e-19, cumulative = 5.87288e-19
DICPCG:  Solving for p, Initial residual = 7.49096e-07, Final residual = 7.49096e-07, No Iterations 0
time step continuity errors : sum local = 2.06915e-09, global = 2.60975e-20, cumulative = 6.13386e-19
ExecutionTime = 0.07 s  ClockTime = 0 s

Time = 0.56

Courant Number mean: 0.224826 max: 0.926451
smoothSolver:  Solving for Ux, Initial residual = 6.04703e-07, Final residual = 6.04703e-07, No Iterations 0
smoothSolver:  Solving for Uy, Initial residual = 1.50755e-06, Final residual = 1.50755e-06, No Iterations 0
DICPCG:  Solving for p, Initial residual = 9.9498e-07, Final residual = 9.9498e-07, No Iterations 0
time step continuity errors : sum local = 2.61198e-09, global = 8.156e-20, cumulative = 6.94946e-19
DICPCG:  Solving for p, Initial residual = 1.12826e-06, Final residual = 4.32167e-07, No Iterations 1
time step continuity errors : sum local = 1.36985e-09, global = 4.45364e-19, cumulative = 1.14031e-18
ExecutionTime = 0.07 s  ClockTime = 0 s

Time = 0.5625

Courant Number mean: 0.224826 max: 0.926451
smoothSolver:  Solving for Ux, Initial residual = 5.95671e-07, Final residual = 5.95671e-07, No Iterations 0
smoothSolver:  Solving for Uy, Initial residual = 1.4844e-06, Final residual = 1.4844e-06, No Iterations 0
DICPCG:  Solving for p, Initial residual = 8.55801e-07, Final residual = 8.55801e-07, No Iterations 0
time step continuity errors : sum local = 2.30511e-09, global = 1.81509e-19, cumulative = 1.32182e-18
DICPCG:  Solving for p, Initial residual = 1.0992e-06, Final residual = 4.2176e-07, No Iterations 1
time step continuity errors : sum local = 1.34713e-09, global = -6.04912e-19, cumulative = 7.16907e-19
ExecutionTime = 0.07 s  ClockTime = 0 s

Time = 0.565

Courant Number mean: 0.224826 max: 0.926451
smoothSolver:  Solving for Ux, Initial residual = 5.86578e-07, Final residual = 5.86578e-07, No Iterations 0
smoothSolver:  Solving for Uy, Initial residual = 1.4598e-06, Final residual = 1.4598e-06, No Iterations 0
DICPCG:  Solving for p, Initial residual = 7.48667e-07, Final residual = 7.48667e-07, No Iterations 0
time step continuity errors : sum local = 2.06884e-09, global = -7.5868e-20, cumulative = 6.41039e-19
DICPCG:  Solving for p, Initial residual = 9.44554e-07, Final residual = 9.44554e-07, No Iterations 0
time step continuity errors : sum local = 2.50129e-09, global = -4.96458e-19, cumulative = 1.44581e-19
ExecutionTime = 0.08 s  ClockTime = 0 s

Time = 0.5675

Courant Number mean: 0.224826 max: 0.926451
smoothSolver:  Solving for Ux, Initial residual = 5.7897e-07, Final residual = 5.7897e-07, No Iterations 0
smoothSolver:  Solving for Uy, Initial residual = 1.44123e-06, Final residual = 1.44123e-06, No Iterations 0
DICPCG:  Solving for p, Initial residual = 1.09248e-06, Final residual = 4.34069e-07, No Iterations 1
time step continuity errors : sum local = 1.37449e-09, global = 5.40986e-19, cumulative = 6.85567e-19
DICPCG:  Solving for p, Initial residual = 7.95593e-07, Final residual = 7.95593e-07, No Iterations 0
time step continuity errors : sum local = 2.17262e-09, global = -5.26402e-19, cumulative = 1.59165e-19
ExecutionTime = 0.08 s  ClockTime = 0 s

Time = 0.57

Courant Number mean: 0.224826 max: 0.926451
smoothSolver:  Solving for Ux, Initial residual = 5.6971e-07, Final residual = 5.6971e-07, No Iterations 0
smoothSolver:  Solving for Uy, Initial residual = 1.41743e-06, Final residual = 1.41743e-06, No Iterations 0
DICPCG:  Solving for p, Initial residual = 1.1021e-06, Final residual = 4.16107e-07, No Iterations 1
time step continuity errors : sum local = 1.33495e-09, global = -1.15283e-19, cumulative = 4.3882e-20
DICPCG:  Solving for p, Initial residual = 6.94751e-07, Final residual = 6.94751e-07, No Iterations 0
time step continuity errors : sum local = 1.9501e-09, global = -8.66446e-19, cumulative = -8.22564e-19
ExecutionTime = 0.08 s  ClockTime = 0 s

Time = 0.5725

Courant Number mean: 0.224826 max: 0.926451
smoothSolver:  Solving for Ux, Initial residual = 5.60974e-07, Final residual = 5.60974e-07, No Iterations 0
smoothSolver:  Solving for Uy, Initial residual = 1.39467e-06, Final residual = 1.39467e-06, No Iterations 0
DICPCG:  Solving for p, Initial residual = 9.39672e-07, Final residual = 9.39672e-07, No Iterations 0
time step continuity errors : sum local = 2.4908e-09, global = -3.42453e-19, cumulative = -1.16502e-18
DICPCG:  Solving for p, Initial residual = 1.0733e-06, Final residual = 4.22286e-07, No Iterations 1
time step continuity errors : sum local = 1.34868e-09, global = -1.17744e-19, cumulative = -1.28276e-18
ExecutionTime = 0.08 s  ClockTime = 0 s

Time = 0.575

Courant Number mean: 0.224826 max: 0.926451
smoothSolver:  Solving for Ux, Initial residual = 5.52192e-07, Final residual = 5.52192e-07, No Iterations 0
smoothSolver:  Solving for Uy, Initial residual = 1.37284e-06, Final residual = 1.37284e-06, No Iterations 0
DICPCG:  Solving for p, Initial residual = 8.26111e-07, Final residual = 8.26111e-07, No Iterations 0
time step continuity errors : sum local = 2.24019e-09, global = -4.90828e-20, cumulative = -1.33184e-18
DICPCG:  Solving for p, Initial residual = 1.06354e-06, Final residual = 4.03971e-07, No Iterations 1
time step continuity errors : sum local = 1.30833e-09, global = 7.60934e-19, cumulative = -5.7091e-19
ExecutionTime = 0.08 s  ClockTime = 0 s

Time = 0.5775

Courant Number mean: 0.224826 max: 0.926451
smoothSolver:  Solving for Ux, Initial residual = 5.43746e-07, Final residual = 5.43746e-07, No Iterations 0
smoothSolver:  Solving for Uy, Initial residual = 1.35077e-06, Final residual = 1.35077e-06, No Iterations 0
DICPCG:  Solving for p, Initial residual = 7.22849e-07, Final residual = 7.22849e-07, No Iterations 0
time step continuity errors : sum local = 2.0123e-09, global = -3.07225e-19, cumulative = -8.78135e-19
DICPCG:  Solving for p, Initial residual = 9.13367e-07, Final residual = 9.13367e-07, No Iterations 0
time step continuity errors : sum local = 2.4329e-09, global = -3.75385e-19, cumulative = -1.25352e-18
ExecutionTime = 0.08 s  ClockTime = 0 s

Time = 0.58

Courant Number mean: 0.224826 max: 0.926451
smoothSolver:  Solving for Ux, Initial residual = 5.36709e-07, Final residual = 5.36709e-07, No Iterations 0
smoothSolver:  Solving for Uy, Initial residual = 1.33373e-06, Final residual = 1.33373e-06, No Iterations 0
DICPCG:  Solving for p, Initial residual = 1.05899e-06, Final residual = 4.11011e-07, No Iterations 1
time step continuity errors : sum local = 1.32398e-09, global = 2.57145e-19, cumulative = -9.96375e-19
DICPCG:  Solving for p, Initial residual = 7.57025e-07, Final residual = 7.57025e-07, No Iterations 0
time step continuity errors : sum local = 2.08787e-09, global = -5.84967e-19, cumulative = -1.58134e-18
ExecutionTime = 0.08 s  ClockTime = 0 s

Time = 0.5825

Courant Number mean: 0.224826 max: 0.926451
smoothSolver:  Solving for Ux, Initial residual = 5.28146e-07, Final residual = 5.28146e-07, No Iterations 0
smoothSolver:  Solving for Uy, Initial residual = 1.31267e-06, Final residual = 1.31267e-06, No Iterations 0
DICPCG:  Solving for p, Initial residual = 1.05686e-06, Final residual = 4.01072e-07, No Iterations 1
time step continuity errors : sum local = 1.30218e-09, global = -4.29674e-19, cumulative = -2.01102e-18
DICPCG:  Solving for p, Initial residual = 6.71309e-07, Final residual = 6.71309e-07, No Iterations 0
time step continuity errors : sum local = 1.89878e-09, global = 2.74247e-19, cumulative = -1.73677e-18
ExecutionTime = 0.08 s  ClockTime = 0 s

Time = 0.585

Courant Number mean: 0.224826 max: 0.926451
smoothSolver:  Solving for Ux, Initial residual = 5.2014e-07, Final residual = 5.2014e-07, No Iterations 0
smoothSolver:  Solving for Uy, Initial residual = 1.29279e-06, Final residual = 1.29279e-06, No Iterations 0
DICPCG:  Solving for p, Initial residual = 9.10531e-07, Final residual = 9.10531e-07, No Iterations 0
time step continuity errors : sum local = 2.4269e-09, global = 6.14647e-19, cumulative = -1.12212e-18
DICPCG:  Solving for p, Initial residual = 1.04106e-06, Final residual = 4.16185e-07, No Iterations 1
time step continuity errors : sum local = 1.33574e-09, global = 7.23783e-20, cumulative = -1.04974e-18
ExecutionTime = 0.08 s  ClockTime = 0 s

Time = 0.5875

Courant Number mean: 0.224826 max: 0.926451
smoothSolver:  Solving for Ux, Initial residual = 5.12099e-07, Final residual = 5.12099e-07, No Iterations 0
smoothSolver:  Solving for Uy, Initial residual = 1.27356e-06, Final residual = 1.27356e-06, No Iterations 0
DICPCG:  Solving for p, Initial residual = 8.10548e-07, Final residual = 8.10548e-07, No Iterations 0
time step continuity errors : sum local = 2.20637e-09, global = 2.11381e-19, cumulative = -8.38363e-19
DICPCG:  Solving for p, Initial residual = 1.04609e-06, Final residual = 4.09624e-07, No Iterations 1
time step continuity errors : sum local = 1.32148e-09, global = -4.09754e-19, cumulative = -1.24812e-18
ExecutionTime = 0.09 s  ClockTime = 0 s

Time = 0.59

Courant Number mean: 0.224826 max: 0.926451
smoothSolver:  Solving for Ux, Initial residual = 5.04288e-07, Final residual = 5.04288e-07, No Iterations 0
smoothSolver:  Solving for Uy, Initial residual = 1.25423e-06, Final residual = 1.25423e-06, No Iterations 0
DICPCG:  Solving for p, Initial residual = 7.28737e-07, Final residual = 7.28737e-07, No Iterations 0
time step continuity errors : sum local = 2.02598e-09, global = -5.3927e-20, cumulative = -1.30204e-18
DICPCG:  Solving for p, Initial residual = 9.20615e-07, Final residual = 9.20615e-07, No Iterations 0
time step continuity errors : sum local = 2.44958e-09, global = -4.80933e-19, cumulative = -1.78298e-18
ExecutionTime = 0.09 s  ClockTime = 0 s

Time = 0.5925

Courant Number mean: 0.224826 max: 0.926451
smoothSolver:  Solving for Ux, Initial residual = 4.97823e-07, Final residual = 4.97823e-07, No Iterations 0
smoothSolver:  Solving for Uy, Initial residual = 1.23846e-06, Final residual = 1.23846e-06, No Iterations 0
DICPCG:  Solving for p, Initial residual = 1.06711e-06, Final residual = 4.19891e-07, No Iterations 1
time step continuity errors : sum local = 1.3444e-09, global = 3.52824e-19, cumulative = -1.43015e-18
DICPCG:  Solving for p, Initial residual = 7.69327e-07, Final residual = 7.69327e-07, No Iterations 0
time step continuity errors : sum local = 2.11585e-09, global = -5.15732e-19, cumulative = -1.94589e-18
ExecutionTime = 0.09 s  ClockTime = 0 s

Time = 0.595

Courant Number mean: 0.224826 max: 0.926451
smoothSolver:  Solving for Ux, Initial residual = 4.89839e-07, Final residual = 4.89839e-07, No Iterations 0
smoothSolver:  Solving for Uy, Initial residual = 1.21959e-06, Final residual = 1.21959e-06, No Iterations 0
DICPCG:  Solving for p, Initial residual = 1.07249e-06, Final residual = 4.11543e-07, No Iterations 1
time step continuity errors : sum local = 1.3262e-09, global = 2.74567e-19, cumulative = -1.67132e-18
DICPCG:  Solving for p, Initial residual = 6.83449e-07, Final residual = 6.83449e-07, No Iterations 0
time step continuity errors : sum local = 1.92649e-09, global = -2.39184e-19, cumulative = -1.9105e-18
ExecutionTime = 0.09 s  ClockTime = 0 s

Time = 0.5975

Courant Number mean: 0.224826 max: 0.926451
smoothSolver:  Solving for Ux, Initial residual = 4.82292e-07, Final residual = 4.82292e-07, No Iterations 0
smoothSolver:  Solving for Uy, Initial residual = 1.20148e-06, Final residual = 1.20148e-06, No Iterations 0
DICPCG:  Solving for p, Initial residual = 9.25277e-07, Final residual = 9.25277e-07, No Iterations 0
time step continuity errors : sum local = 2.46036e-09, global = -4.36855e-20, cumulative = -1.95419e-18
DICPCG:  Solving for p, Initial residual = 1.0577e-06, Final residual = 4.14651e-07, No Iterations 1
time step continuity errors : sum local = 1.33329e-09, global = -3.50864e-19, cumulative = -2.30505e-18
ExecutionTime = 0.09 s  ClockTime = 0 s

Time = 0.6

Courant Number mean: 0.224826 max: 0.926451
smoothSolver:  Solving for Ux, Initial residual = 4.74757e-07, Final residual = 4.74757e-07, No Iterations 0
smoothSolver:  Solving for Uy, Initial residual = 1.18376e-06, Final residual = 1.18376e-06, No Iterations 0
DICPCG:  Solving for p, Initial residual = 8.09457e-07, Final residual = 8.09457e-07, No Iterations 0
time step continuity errors : sum local = 2.2049e-09, global = -5.79306e-19, cumulative = -2.88436e-18
DICPCG:  Solving for p, Initial residual = 1.04733e-06, Final residual = 3.98257e-07, No Iterations 1
time step continuity errors : sum local = 1.29727e-09, global = -3.15518e-20, cumulative = -2.91591e-18
ExecutionTime = 0.1 s  ClockTime = 0 s

Time = 0.6025

Courant Number mean: 0.224826 max: 0.926451
smoothSolver:  Solving for Ux, Initial residual = 4.6724e-07, Final residual = 4.6724e-07, No Iterations 0
smoothSolver:  Solving for Uy, Initial residual = 1.16569e-06, Final residual = 1.16569e-06, No Iterations 0
DICPCG:  Solving for p, Initial residual = 7.09323e-07, Final residual = 7.09323e-07, No Iterations 0
time step continuity errors : sum local = 1.984e-09, global = -4.27394e-19, cumulative = -3.3433e-18
DICPCG:  Solving for p, Initial residual = 8.98442e-07, Final residual = 8.98442e-07, No Iterations 0
time step continuity errors : sum local = 2.40151e-09, global = -2.94709e-19, cumulative = -3.63801e-18
ExecutionTime = 0.1 s  ClockTime = 0 s

Time = 0.605

Courant Number mean: 0.224827 max: 0.926451
smoothSolver:  Solving for Ux, Initial residual = 4.6128e-07, Final residual = 4.6128e-07, No Iterations 0
smoothSolver:  Solving for Uy, Initial residual = 1.15095e-06, Final residual = 1.15095e-06, No Iterations 0
DICPCG:  Solving for p, Initial residual = 1.04217e-06, Final residual = 3.86649e-07, No Iterations 1
time step continuity errors : sum local = 1.27174e-09, global = 3.12219e-19, cumulative = -3.32579e-18
DICPCG:  Solving for p, Initial residual = 7.22552e-07, Final residual = 7.22552e-07, No Iterations 0
time step continuity errors : sum local = 2.01331e-09, global = 2.7191e-19, cumulative = -3.05388e-18
ExecutionTime = 0.1 s  ClockTime = 0 s

Time = 0.6075

Courant Number mean: 0.224827 max: 0.926451
smoothSolver:  Solving for Ux, Initial residual = 4.53736e-07, Final residual = 4.53736e-07, No Iterations 0
smoothSolver:  Solving for Uy, Initial residual = 1.13335e-06, Final residual = 1.13335e-06, No Iterations 0
DICPCG:  Solving for p, Initial residual = 1.01482e-06, Final residual = 3.65865e-07, No Iterations 1
time step continuity errors : sum local = 1.22589e-09, global = 1.22991e-19, cumulative = -2.93089e-18
DICPCG:  Solving for p, Initial residual = 6.15162e-07, Final residual = 6.15162e-07, No Iterations 0
time step continuity errors : sum local = 1.77625e-09, global = -3.12302e-19, cumulative = -3.24319e-18
ExecutionTime = 0.1 s  ClockTime = 0 s

Time = 0.61

Courant Number mean: 0.224827 max: 0.926451
smoothSolver:  Solving for Ux, Initial residual = 4.46622e-07, Final residual = 4.46622e-07, No Iterations 0
smoothSolver:  Solving for Uy, Initial residual = 1.11613e-06, Final residual = 1.11613e-06, No Iterations 0
DICPCG:  Solving for p, Initial residual = 8.39768e-07, Final residual = 8.39768e-07, No Iterations 0
time step continuity errors : sum local = 2.27209e-09, global = 1.01717e-19, cumulative = -3.14148e-18
DICPCG:  Solving for p, Initial residual = 9.63335e-07, Final residual = 9.63335e-07, No Iterations 0
time step continuity errors : sum local = 2.54488e-09, global = 5.25673e-20, cumulative = -3.08891e-18
ExecutionTime = 0.1 s  ClockTime = 0 s

Time = 0.6125

Courant Number mean: 0.224827 max: 0.926451
smoothSolver:  Solving for Ux, Initial residual = 4.41208e-07, Final residual = 4.41208e-07, No Iterations 0
smoothSolver:  Solving for Uy, Initial residual = 1.10244e-06, Final residual = 1.10244e-06, No Iterations 0
DICPCG:  Solving for p, Initial residual = 1.05975e-06, Final residual = 3.60553e-07, No Iterations 1
time step continuity errors : sum local = 1.21409e-09, global = 1.44162e-19, cumulative = -2.94475e-18
DICPCG:  Solving for p, Initial residual = 7.32526e-07, Final residual = 7.32526e-07, No Iterations 0
time step continuity errors : sum local = 2.03526e-09, global = 1.44514e-19, cumulative = -2.80023e-18
ExecutionTime = 0.1 s  ClockTime = 0 s

Time = 0.615

Courant Number mean: 0.224827 max: 0.926451
smoothSolver:  Solving for Ux, Initial residual = 4.33703e-07, Final residual = 4.33703e-07, No Iterations 0
smoothSolver:  Solving for Uy, Initial residual = 1.08458e-06, Final residual = 1.08458e-06, No Iterations 0
DICPCG:  Solving for p, Initial residual = 1.05444e-06, Final residual = 3.44004e-07, No Iterations 1
time step continuity errors : sum local = 1.17744e-09, global = 7.38569e-20, cumulative = -2.72638e-18
DICPCG:  Solving for p, Initial residual = 5.93605e-07, Final residual = 5.93605e-07, No Iterations 0
time step continuity errors : sum local = 1.72843e-09, global = -1.689e-20, cumulative = -2.74327e-18
ExecutionTime = 0.1 s  ClockTime = 0 s

Time = 0.6175

Courant Number mean: 0.224827 max: 0.926451
smoothSolver:  Solving for Ux, Initial residual = 4.26785e-07, Final residual = 4.26785e-07, No Iterations 0
smoothSolver:  Solving for Uy, Initial residual = 1.06763e-06, Final residual = 1.06763e-06, No Iterations 0
DICPCG:  Solving for p, Initial residual = 8.2012e-07, Final residual = 8.2012e-07, No Iterations 0
time step continuity errors : sum local = 2.22845e-09, global = -4.50875e-19, cumulative = -3.19414e-18
DICPCG:  Solving for p, Initial residual = 9.45469e-07, Final residual = 9.45469e-07, No Iterations 0
time step continuity errors : sum local = 2.50516e-09, global = -2.74179e-19, cumulative = -3.46832e-18
ExecutionTime = 0.1 s  ClockTime = 0 s

Time = 0.62

Courant Number mean: 0.224827 max: 0.926451
smoothSolver:  Solving for Ux, Initial residual = 4.21589e-07, Final residual = 4.21589e-07, No Iterations 0
smoothSolver:  Solving for Uy, Initial residual = 1.05456e-06, Final residual = 1.05456e-06, No Iterations 0
DICPCG:  Solving for p, Initial residual = 1.0437e-06, Final residual = 3.59068e-07, No Iterations 1
time step continuity errors : sum local = 1.21048e-09, global = -3.42856e-19, cumulative = -3.81118e-18
DICPCG:  Solving for p, Initial residual = 7.34589e-07, Final residual = 7.34589e-07, No Iterations 0
time step continuity errors : sum local = 2.03947e-09, global = 1.73801e-19, cumulative = -3.63738e-18
ExecutionTime = 0.1 s  ClockTime = 0 s

Time = 0.6225

Courant Number mean: 0.224827 max: 0.926451
smoothSolver:  Solving for Ux, Initial residual = 4.14366e-07, Final residual = 4.14366e-07, No Iterations 0
smoothSolver:  Solving for Uy, Initial residual = 1.03694e-06, Final residual = 1.03694e-06, No Iterations 0
DICPCG:  Solving for p, Initial residual = 1.05987e-06, Final residual = 3.41695e-07, No Iterations 1
time step continuity errors : sum local = 1.17196e-09, global = -1.31372e-19, cumulative = -3.76875e-18
DICPCG:  Solving for p, Initial residual = 5.96652e-07, Final residual = 5.96652e-07, No Iterations 0
time step continuity errors : sum local = 1.73475e-09, global = 1.24847e-19, cumulative = -3.6439e-18
ExecutionTime = 0.11 s  ClockTime = 0 s

Time = 0.625

Courant Number mean: 0.224827 max: 0.926451
smoothSolver:  Solving for Ux, Initial residual = 4.07732e-07, Final residual = 4.07732e-07, No Iterations 0
smoothSolver:  Solving for Uy, Initial residual = 1.02042e-06, Final residual = 1.02042e-06, No Iterations 0
DICPCG:  Solving for p, Initial residual = 8.29597e-07, Final residual = 8.29597e-07, No Iterations 0
time step continuity errors : sum local = 2.24897e-09, global = -9.55807e-20, cumulative = -3.73948e-18
DICPCG:  Solving for p, Initial residual = 9.59827e-07, Final residual = 9.59827e-07, No Iterations 0
time step continuity errors : sum local = 2.53645e-09, global = 3.43115e-19, cumulative = -3.39637e-18
ExecutionTime = 0.11 s  ClockTime = 0 s

Time = 0.6275

Courant Number mean: 0.224827 max: 0.926451
smoothSolver:  Solving for Ux, Initial residual = 4.02735e-07, Final residual = 4.02735e-07, No Iterations 0
smoothSolver:  Solving for Uy, Initial residual = 1.0079e-06, Final residual = 1.0079e-06, No Iterations 0
DICPCG:  Solving for p, Initial residual = 1.06112e-06, Final residual = 3.57991e-07, No Iterations 1
time step continuity errors : sum local = 1.20772e-09, global = -2.70586e-19, cumulative = -3.66695e-18
DICPCG:  Solving for p, Initial residual = 7.44399e-07, Final residual = 7.44399e-07, No Iterations 0
time step continuity errors : sum local = 2.06076e-09, global = 7.87683e-20, cumulative = -3.58819e-18
ExecutionTime = 0.11 s  ClockTime = 0 s

Time = 0.63

Courant Number mean: 0.224827 max: 0.926451
smoothSolver:  Solving for Ux, Initial residual = 3.95946e-07, Final residual = 3.95946e-07, No Iterations 0
smoothSolver:  Solving for Uy, Initial residual = 9.90856e-07, Final residual = 9.90856e-07, No Iterations 0
DICPCG:  Solving for p, Initial residual = 1.08272e-06, Final residual = 3.42526e-07, No Iterations 1
time step continuity errors : sum local = 1.17346e-09, global = -2.43744e-19, cumulative = -3.83193e-18
DICPCG:  Solving for p, Initial residual = 6.05735e-07, Final residual = 6.05735e-07, No Iterations 0
time step continuity errors : sum local = 1.7545e-09, global = -7.95117e-19, cumulative = -4.62705e-18
ExecutionTime = 0.11 s  ClockTime = 0 s

Time = 0.6325

Courant Number mean: 0.224827 max: 0.926451
smoothSolver:  Solving for Ux, Initial residual = 3.89681e-07, Final residual = 3.89681e-07, No Iterations 0
smoothSolver:  Solving for Uy, Initial residual = 9.75059e-07, Final residual = 9.75059e-07, No Iterations 0
DICPCG:  Solving for p, Initial residual = 8.51027e-07, Final residual = 8.51027e-07, No Iterations 0
time step continuity errors : sum local = 2.29599e-09, global = -4.79548e-19, cumulative = -5.10659e-18
DICPCG:  Solving for p, Initial residual = 9.86419e-07, Final residual = 9.86419e-07, No Iterations 0
time step continuity errors : sum local = 2.59488e-09, global = -9.3761e-20, cumulative = -5.20036e-18
ExecutionTime = 0.11 s  ClockTime = 0 s

Time = 0.635

Courant Number mean: 0.224827 max: 0.926451
smoothSolver:  Solving for Ux, Initial residual = 3.84881e-07, Final residual = 3.84881e-07, No Iterations 0
smoothSolver:  Solving for Uy, Initial residual = 9.63017e-07, Final residual = 9.63017e-07, No Iterations 0
DICPCG:  Solving for p, Initial residual = 1.0912e-06, Final residual = 3.64405e-07, No Iterations 1
time step continuity errors : sum local = 1.22168e-09, global = 3.80953e-19, cumulative = -4.8194e-18
DICPCG:  Solving for p, Initial residual = 7.66642e-07, Final residual = 7.66642e-07, No Iterations 0
time step continuity errors : sum local = 2.10968e-09, global = 2.35018e-19, cumulative = -4.58438e-18
ExecutionTime = 0.11 s  ClockTime = 0 s

Time = 0.6375

Courant Number mean: 0.224827 max: 0.926451
smoothSolver:  Solving for Ux, Initial residual = 3.78638e-07, Final residual = 3.78638e-07, No Iterations 0
smoothSolver:  Solving for Uy, Initial residual = 9.4692e-07, Final residual = 9.4692e-07, No Iterations 0
DICPCG:  Solving for p, Initial residual = 1.12017e-06, Final residual = 3.54438e-07, No Iterations 1
time step continuity errors : sum local = 1.19969e-09, global = -2.62764e-19, cumulative = -4.84715e-18
DICPCG:  Solving for p, Initial residual = 6.33125e-07, Final residual = 6.33125e-07, No Iterations 0
time step continuity errors : sum local = 1.81493e-09, global = -2.85341e-19, cumulative = -5.13249e-18
ExecutionTime = 0.11 s  ClockTime = 0 s

Time = 0.64

Courant Number mean: 0.224827 max: 0.926451
smoothSolver:  Solving for Ux, Initial residual = 3.72733e-07, Final residual = 3.72733e-07, No Iterations 0
smoothSolver:  Solving for Uy, Initial residual = 9.31955e-07, Final residual = 9.31955e-07, No Iterations 0
DICPCG:  Solving for p, Initial residual = 8.91447e-07, Final residual = 8.91447e-07, No Iterations 0
time step continuity errors : sum local = 2.38522e-09, global = 3.96411e-19, cumulative = -4.73608e-18
DICPCG:  Solving for p, Initial residual = 1.03409e-06, Final residual = 3.66963e-07, No Iterations 1
time step continuity errors : sum local = 1.22741e-09, global = 3.77505e-20, cumulative = -4.69833e-18
ExecutionTime = 0.11 s  ClockTime = 0 s

Time = 0.6425

Courant Number mean: 0.224827 max: 0.926451
smoothSolver:  Solving for Ux, Initial residual = 3.67394e-07, Final residual = 3.67394e-07, No Iterations 0
smoothSolver:  Solving for Uy, Initial residual = 9.17695e-07, Final residual = 9.17695e-07, No Iterations 0
DICPCG:  Solving for p, Initial residual = 7.76982e-07, Final residual = 7.76982e-07, No Iterations 0
time step continuity errors : sum local = 2.13259e-09, global = 2.01367e-19, cumulative = -4.49696e-18
DICPCG:  Solving for p, Initial residual = 1.03103e-06, Final residual = 3.57091e-07, No Iterations 1
time step continuity errors : sum local = 1.20574e-09, global = -1.08076e-19, cumulative = -4.60504e-18
ExecutionTime = 0.12 s  ClockTime = 0 s

Time = 0.645

Courant Number mean: 0.224827 max: 0.926451
smoothSolver:  Solving for Ux, Initial residual = 3.6167e-07, Final residual = 3.6167e-07, No Iterations 0
smoothSolver:  Solving for Uy, Initial residual = 9.03438e-07, Final residual = 9.03438e-07, No Iterations 0
DICPCG:  Solving for p, Initial residual = 6.81959e-07, Final residual = 6.81959e-07, No Iterations 0
time step continuity errors : sum local = 1.92294e-09, global = -1.08981e-20, cumulative = -4.61594e-18
DICPCG:  Solving for p, Initial residual = 8.85879e-07, Final residual = 8.85879e-07, No Iterations 0
time step continuity errors : sum local = 2.37312e-09, global = 2.14012e-19, cumulative = -4.40192e-18
ExecutionTime = 0.12 s  ClockTime = 0 s

Time = 0.6475

Courant Number mean: 0.224827 max: 0.926451
smoothSolver:  Solving for Ux, Initial residual = 3.56877e-07, Final residual = 3.56877e-07, No Iterations 0
smoothSolver:  Solving for Uy, Initial residual = 8.91547e-07, Final residual = 8.91547e-07, No Iterations 0
DICPCG:  Solving for p, Initial residual = 1.04123e-06, Final residual = 3.57967e-07, No Iterations 1
time step continuity errors : sum local = 1.20783e-09, global = 3.17301e-19, cumulative = -4.08462e-18
DICPCG:  Solving for p, Initial residual = 7.17893e-07, Final residual = 7.17893e-07, No Iterations 0
time step continuity errors : sum local = 2.00243e-09, global = 9.61442e-20, cumulative = -3.98848e-18
ExecutionTime = 0.12 s  ClockTime = 0 s

Time = 0.65

Courant Number mean: 0.224827 max: 0.926451
smoothSolver:  Solving for Ux, Initial residual = 3.5157e-07, Final residual = 3.5157e-07, No Iterations 0
smoothSolver:  Solving for Uy, Initial residual = 8.77898e-07, Final residual = 8.77898e-07, No Iterations 0
DICPCG:  Solving for p, Initial residual = 1.03612e-06, Final residual = 3.52656e-07, No Iterations 1
time step continuity errors : sum local = 1.19629e-09, global = 5.69266e-19, cumulative = -3.41921e-18
DICPCG:  Solving for p, Initial residual = 6.24946e-07, Final residual = 6.24946e-07, No Iterations 0
time step continuity errors : sum local = 1.79742e-09, global = 1.25799e-19, cumulative = -3.29341e-18
ExecutionTime = 0.13 s  ClockTime = 0 s

Time = 0.6525

Courant Number mean: 0.224827 max: 0.926451
smoothSolver:  Solving for Ux, Initial residual = 3.46369e-07, Final residual = 3.46369e-07, No Iterations 0
smoothSolver:  Solving for Uy, Initial residual = 8.6455e-07, Final residual = 8.6455e-07, No Iterations 0
DICPCG:  Solving for p, Initial residual = 8.75381e-07, Final residual = 8.75381e-07, No Iterations 0
time step continuity errors : sum local = 2.35029e-09, global = 8.37365e-20, cumulative = -3.20968e-18
DICPCG:  Solving for p, Initial residual = 1.0144e-06, Final residual = 3.57323e-07, No Iterations 1
time step continuity errors : sum local = 1.20678e-09, global = -1.80429e-21, cumulative = -3.21148e-18
ExecutionTime = 0.13 s  ClockTime = 0 s

Time = 0.655

Courant Number mean: 0.224827 max: 0.926451
smoothSolver:  Solving for Ux, Initial residual = 3.41686e-07, Final residual = 3.41686e-07, No Iterations 0
smoothSolver:  Solving for Uy, Initial residual = 8.51875e-07, Final residual = 8.51875e-07, No Iterations 0
DICPCG:  Solving for p, Initial residual = 7.58982e-07, Final residual = 7.58982e-07, No Iterations 0
time step continuity errors : sum local = 2.09351e-09, global = 1.19822e-19, cumulative = -3.09166e-18
DICPCG:  Solving for p, Initial residual = 1.00956e-06, Final residual = 3.50664e-07, No Iterations 1
time step continuity errors : sum local = 1.19224e-09, global = 4.09516e-19, cumulative = -2.68214e-18
ExecutionTime = 0.13 s  ClockTime = 0 s

Time = 0.6575

Courant Number mean: 0.224827 max: 0.926452
smoothSolver:  Solving for Ux, Initial residual = 3.36323e-07, Final residual = 3.36323e-07, No Iterations 0
smoothSolver:  Solving for Uy, Initial residual = 8.38685e-07, Final residual = 8.38685e-07, No Iterations 0
DICPCG:  Solving for p, Initial residual = 6.63833e-07, Final residual = 6.63833e-07, No Iterations 0
time step continuity errors : sum local = 1.88362e-09, global = -9.88739e-20, cumulative = -2.78102e-18
DICPCG:  Solving for p, Initial residual = 8.66301e-07, Final residual = 8.66301e-07, No Iterations 0
time step continuity errors : sum local = 2.3306e-09, global = 1.61631e-19, cumulative = -2.61939e-18
ExecutionTime = 0.14 s  ClockTime = 0 s

Time = 0.66

Courant Number mean: 0.224827 max: 0.926452
smoothSolver:  Solving for Ux, Initial residual = 3.31834e-07, Final residual = 3.31834e-07, No Iterations 0
smoothSolver:  Solving for Uy, Initial residual = 8.27679e-07, Final residual = 8.27679e-07, No Iterations 0
DICPCG:  Solving for p, Initial residual = 1.01917e-06, Final residual = 3.48629e-07, No Iterations 1
time step continuity errors : sum local = 1.18788e-09, global = 7.96792e-19, cumulative = -1.82259e-18
DICPCG:  Solving for p, Initial residual = 6.99911e-07, Final residual = 6.99911e-07, No Iterations 0
time step continuity errors : sum local = 1.9634e-09, global = 2.68978e-19, cumulative = -1.55362e-18
ExecutionTime = 0.14 s  ClockTime = 0 s

Time = 0.6625

Courant Number mean: 0.224827 max: 0.926452
smoothSolver:  Solving for Ux, Initial residual = 3.26803e-07, Final residual = 3.26803e-07, No Iterations 0
smoothSolver:  Solving for Uy, Initial residual = 8.14929e-07, Final residual = 8.14929e-07, No Iterations 0
DICPCG:  Solving for p, Initial residual = 1.0121e-06, Final residual = 3.37819e-07, No Iterations 1
time step continuity errors : sum local = 1.16412e-09, global = 1.82068e-19, cumulative = -1.37155e-18
DICPCG:  Solving for p, Initial residual = 5.99021e-07, Final residual = 5.99021e-07, No Iterations 0
time step continuity errors : sum local = 1.74077e-09, global = -3.13e-19, cumulative = -1.68455e-18
ExecutionTime = 0.14 s  ClockTime = 0 s

Time = 0.665

Courant Number mean: 0.224827 max: 0.926452
smoothSolver:  Solving for Ux, Initial residual = 3.21761e-07, Final residual = 3.21761e-07, No Iterations 0
smoothSolver:  Solving for Uy, Initial residual = 8.02222e-07, Final residual = 8.02222e-07, No Iterations 0
DICPCG:  Solving for p, Initial residual = 8.45697e-07, Final residual = 8.45697e-07, No Iterations 0
time step continuity errors : sum local = 2.28534e-09, global = 2.95872e-20, cumulative = -1.65496e-18
DICPCG:  Solving for p, Initial residual = 9.81696e-07, Final residual = 9.81696e-07, No Iterations 0
time step continuity errors : sum local = 2.58558e-09, global = -1.25018e-19, cumulative = -1.77998e-18
ExecutionTime = 0.14 s  ClockTime = 0 s

Time = 0.6675

Courant Number mean: 0.224827 max: 0.926452
smoothSolver:  Solving for Ux, Initial residual = 3.17742e-07, Final residual = 3.17742e-07, No Iterations 0
smoothSolver:  Solving for Uy, Initial residual = 7.9219e-07, Final residual = 7.9219e-07, No Iterations 0
DICPCG:  Solving for p, Initial residual = 1.08486e-06, Final residual = 3.33328e-07, No Iterations 1
time step continuity errors : sum local = 1.15425e-09, global = 1.72757e-19, cumulative = -1.60722e-18
DICPCG:  Solving for p, Initial residual = 7.33333e-07, Final residual = 7.33333e-07, No Iterations 0
time step continuity errors : sum local = 2.03732e-09, global = -2.81231e-19, cumulative = -1.88845e-18
ExecutionTime = 0.14 s  ClockTime = 0 s

Time = 0.67

Courant Number mean: 0.224828 max: 0.926452
smoothSolver:  Solving for Ux, Initial residual = 3.12733e-07, Final residual = 3.12733e-07, No Iterations 0
smoothSolver:  Solving for Uy, Initial residual = 7.7934e-07, Final residual = 7.7934e-07, No Iterations 0
DICPCG:  Solving for p, Initial residual = 1.08733e-06, Final residual = 3.20597e-07, No Iterations 1
time step continuity errors : sum local = 1.12617e-09, global = 4.26262e-19, cumulative = -1.46219e-18
DICPCG:  Solving for p, Initial residual = 5.81394e-07, Final residual = 5.81394e-07, No Iterations 0
time step continuity errors : sum local = 1.70191e-09, global = 3.01011e-19, cumulative = -1.16118e-18
ExecutionTime = 0.14 s  ClockTime = 0 s

Time = 0.6725

Courant Number mean: 0.224828 max: 0.926452
smoothSolver:  Solving for Ux, Initial residual = 3.07552e-07, Final residual = 3.07552e-07, No Iterations 0
smoothSolver:  Solving for Uy, Initial residual = 7.6671e-07, Final residual = 7.6671e-07, No Iterations 0
DICPCG:  Solving for p, Initial residual = 8.31677e-07, Final residual = 8.31677e-07, No Iterations 0
time step continuity errors : sum local = 2.25445e-09, global = 4.67802e-19, cumulative = -6.93379e-19
DICPCG:  Solving for p, Initial residual = 9.70055e-07, Final residual = 9.70055e-07, No Iterations 0
time step continuity errors : sum local = 2.55994e-09, global = 1.91058e-19, cumulative = -5.02321e-19
ExecutionTime = 0.14 s  ClockTime = 0 s

Time = 0.675

Courant Number mean: 0.224828 max: 0.926452
smoothSolver:  Solving for Ux, Initial residual = 3.03681e-07, Final residual = 3.03681e-07, No Iterations 0
smoothSolver:  Solving for Uy, Initial residual = 7.57079e-07, Final residual = 7.57079e-07, No Iterations 0
DICPCG:  Solving for p, Initial residual = 1.07526e-06, Final residual = 3.21451e-07, No Iterations 1
time step continuity errors : sum local = 1.12805e-09, global = -6.39773e-20, cumulative = -5.66298e-19
DICPCG:  Solving for p, Initial residual = 7.18141e-07, Final residual = 7.18141e-07, No Iterations 0
time step continuity errors : sum local = 2.00381e-09, global = -1.28632e-19, cumulative = -6.9493e-19
ExecutionTime = 0.14 s  ClockTime = 0 s

Time = 0.6775

Courant Number mean: 0.224828 max: 0.926452
smoothSolver:  Solving for Ux, Initial residual = 2.98788e-07, Final residual = 2.98788e-07, No Iterations 0
smoothSolver:  Solving for Uy, Initial residual = 7.44566e-07, Final residual = 7.44566e-07, No Iterations 0
DICPCG:  Solving for p, Initial residual = 1.07079e-06, Final residual = 3.07003e-07, No Iterations 1
time step continuity errors : sum local = 1.09618e-09, global = 5.11435e-19, cumulative = -1.83495e-19
DICPCG:  Solving for p, Initial residual = 5.58944e-07, Final residual = 5.58944e-07, No Iterations 0
time step continuity errors : sum local = 1.65236e-09, global = -9.3094e-20, cumulative = -2.76589e-19
ExecutionTime = 0.14 s  ClockTime = 0 s

Time = 0.68

Courant Number mean: 0.224828 max: 0.926452
smoothSolver:  Solving for Ux, Initial residual = 2.93671e-07, Final residual = 2.93671e-07, No Iterations 0
smoothSolver:  Solving for Uy, Initial residual = 7.32412e-07, Final residual = 7.32412e-07, No Iterations 0
DICPCG:  Solving for p, Initial residual = 8.04069e-07, Final residual = 8.04069e-07, No Iterations 0
time step continuity errors : sum local = 2.19351e-09, global = -5.55752e-19, cumulative = -8.3234e-19
DICPCG:  Solving for p, Initial residual = 9.39528e-07, Final residual = 9.39528e-07, No Iterations 0
time step continuity errors : sum local = 2.49256e-09, global = -4.44992e-19, cumulative = -1.27733e-18
ExecutionTime = 0.14 s  ClockTime = 0 s

Time = 0.6825

Courant Number mean: 0.224828 max: 0.926452
smoothSolver:  Solving for Ux, Initial residual = 2.89966e-07, Final residual = 2.89966e-07, No Iterations 0
smoothSolver:  Solving for Uy, Initial residual = 7.23165e-07, Final residual = 7.23165e-07, No Iterations 0
DICPCG:  Solving for p, Initial residual = 1.04266e-06, Final residual = 3.03054e-07, No Iterations 1
time step continuity errors : sum local = 1.08748e-09, global = 9.68215e-20, cumulative = -1.18051e-18
DICPCG:  Solving for p, Initial residual = 6.84904e-07, Final residual = 6.84904e-07, No Iterations 0
time step continuity errors : sum local = 1.93047e-09, global = -2.05141e-20, cumulative = -1.20102e-18
ExecutionTime = 0.15 s  ClockTime = 0 s

Time = 0.685

Courant Number mean: 0.224828 max: 0.926452
smoothSolver:  Solving for Ux, Initial residual = 2.85325e-07, Final residual = 2.85325e-07, No Iterations 0
smoothSolver:  Solving for Uy, Initial residual = 7.11332e-07, Final residual = 7.11332e-07, No Iterations 0
DICPCG:  Solving for p, Initial residual = 1.02811e-06, Final residual = 2.88088e-07, No Iterations 1
time step continuity errors : sum local = 1.05452e-09, global = 2.77591e-19, cumulative = -9.23433e-19
DICPCG:  Solving for p, Initial residual = 5.2804e-07, Final residual = 5.2804e-07, No Iterations 0
time step continuity errors : sum local = 1.58425e-09, global = -4.30884e-19, cumulative = -1.35432e-18
ExecutionTime = 0.15 s  ClockTime = 0 s

Time = 0.6875

Courant Number mean: 0.224828 max: 0.926452
smoothSolver:  Solving for Ux, Initial residual = 2.80445e-07, Final residual = 2.80445e-07, No Iterations 0
smoothSolver:  Solving for Uy, Initial residual = 6.99984e-07, Final residual = 6.99984e-07, No Iterations 0
DICPCG:  Solving for p, Initial residual = 7.62727e-07, Final residual = 7.62727e-07, No Iterations 0
time step continuity errors : sum local = 2.10236e-09, global = -4.34322e-20, cumulative = -1.39775e-18
DICPCG:  Solving for p, Initial residual = 8.93245e-07, Final residual = 8.93245e-07, No Iterations 0
time step continuity errors : sum local = 2.39049e-09, global = -3.41879e-19, cumulative = -1.73963e-18
ExecutionTime = 0.15 s  ClockTime = 0 s

Time = 0.69

Courant Number mean: 0.224828 max: 0.926452
smoothSolver:  Solving for Ux, Initial residual = 2.76917e-07, Final residual = 2.76917e-07, No Iterations 0
smoothSolver:  Solving for Uy, Initial residual = 6.91138e-07, Final residual = 6.91138e-07, No Iterations 0
DICPCG:  Solving for p, Initial residual = 9.92816e-07, Final residual = 9.92816e-07, No Iterations 0
time step continuity errors : sum local = 2.61031e-09, global = 6.59511e-19, cumulative = -1.08012e-18
DICPCG:  Solving for p, Initial residual = 1.05302e-06, Final residual = 3.01529e-07, No Iterations 1
time step continuity errors : sum local = 1.08431e-09, global = -4.04026e-19, cumulative = -1.48414e-18
ExecutionTime = 0.15 s  ClockTime = 0 s

Time = 0.6925

Courant Number mean: 0.224828 max: 0.926452
smoothSolver:  Solving for Ux, Initial residual = 2.73362e-07, Final residual = 2.73362e-07, No Iterations 0
smoothSolver:  Solving for Uy, Initial residual = 6.8089e-07, Final residual = 6.8089e-07, No Iterations 0
DICPCG:  Solving for p, Initial residual = 7.67545e-07, Final residual = 7.67545e-07, No Iterations 0
time step continuity errors : sum local = 2.11311e-09, global = -5.83995e-19, cumulative = -2.06814e-18
DICPCG:  Solving for p, Initial residual = 1.06586e-06, Final residual = 2.90619e-07, No Iterations 1
time step continuity errors : sum local = 1.06037e-09, global = 2.86727e-19, cumulative = -1.78141e-18
ExecutionTime = 0.15 s  ClockTime = 0 s

Time = 0.695

Courant Number mean: 0.224828 max: 0.926452
smoothSolver:  Solving for Ux, Initial residual = 2.68022e-07, Final residual = 2.68022e-07, No Iterations 0
smoothSolver:  Solving for Uy, Initial residual = 6.69434e-07, Final residual = 6.69434e-07, No Iterations 0
DICPCG:  Solving for p, Initial residual = 5.80534e-07, Final residual = 5.80534e-07, No Iterations 0
time step continuity errors : sum local = 1.70041e-09, global = 1.75207e-20, cumulative = -1.76389e-18
DICPCG:  Solving for p, Initial residual = 7.78099e-07, Final residual = 7.78099e-07, No Iterations 0
time step continuity errors : sum local = 2.13657e-09, global = -3.34956e-19, cumulative = -2.09885e-18
ExecutionTime = 0.15 s  ClockTime = 0 s

Time = 0.6975

Courant Number mean: 0.224828 max: 0.926452
smoothSolver:  Solving for Ux, Initial residual = 2.64355e-07, Final residual = 2.64355e-07, No Iterations 0
smoothSolver:  Solving for Uy, Initial residual = 6.60423e-07, Final residual = 6.60423e-07, No Iterations 0
DICPCG:  Solving for p, Initial residual = 9.28064e-07, Final residual = 9.28064e-07, No Iterations 0
time step continuity errors : sum local = 2.46763e-09, global = -4.22286e-19, cumulative = -2.52113e-18
DICPCG:  Solving for p, Initial residual = 1.01664e-06, Final residual = 2.98755e-07, No Iterations 1
time step continuity errors : sum local = 1.07852e-09, global = 1.22567e-19, cumulative = -2.39857e-18
ExecutionTime = 0.15 s  ClockTime = 0 s

Time = 0.7

Courant Number mean: 0.224828 max: 0.926452
smoothSolver:  Solving for Ux, Initial residual = 2.60971e-07, Final residual = 2.60971e-07, No Iterations 0
smoothSolver:  Solving for Uy, Initial residual = 6.50874e-07, Final residual = 6.50874e-07, No Iterations 0
DICPCG:  Solving for p, Initial residual = 7.25117e-07, Final residual = 7.25117e-07, No Iterations 0
time step continuity errors : sum local = 2.01978e-09, global = 2.33999e-19, cumulative = -2.16457e-18
DICPCG:  Solving for p, Initial residual = 1.0022e-06, Final residual = 2.86119e-07, No Iterations 1
time step continuity errors : sum local = 1.0508e-09, global = 2.71548e-19, cumulative = -1.89302e-18
ExecutionTime = 0.16 s  ClockTime = 0 s

Time = 0.7025

Courant Number mean: 0.224828 max: 0.926452
smoothSolver:  Solving for Ux, Initial residual = 2.56044e-07, Final residual = 2.56044e-07, No Iterations 0
smoothSolver:  Solving for Uy, Initial residual = 6.4026e-07, Final residual = 6.4026e-07, No Iterations 0
DICPCG:  Solving for p, Initial residual = 5.6882e-07, Final residual = 5.6882e-07, No Iterations 0
time step continuity errors : sum local = 1.67491e-09, global = 2.75601e-19, cumulative = -1.61742e-18
DICPCG:  Solving for p, Initial residual = 7.60874e-07, Final residual = 7.60874e-07, No Iterations 0
time step continuity errors : sum local = 2.09889e-09, global = -4.253e-19, cumulative = -2.04272e-18
ExecutionTime = 0.16 s  ClockTime = 0 s

Time = 0.705

Courant Number mean: 0.224828 max: 0.926452
smoothSolver:  Solving for Ux, Initial residual = 2.52553e-07, Final residual = 2.52553e-07, No Iterations 0
smoothSolver:  Solving for Uy, Initial residual = 6.31638e-07, Final residual = 6.31638e-07, No Iterations 0
DICPCG:  Solving for p, Initial residual = 9.0654e-07, Final residual = 9.0654e-07, No Iterations 0
time step continuity errors : sum local = 2.42047e-09, global = 4.64338e-19, cumulative = -1.57838e-18
DICPCG:  Solving for p, Initial residual = 9.91916e-07, Final residual = 9.91916e-07, No Iterations 0
time step continuity errors : sum local = 2.60896e-09, global = -2.74655e-19, cumulative = -1.85303e-18
ExecutionTime = 0.16 s  ClockTime = 0 s

Time = 0.7075

Courant Number mean: 0.224828 max: 0.926452
smoothSolver:  Solving for Ux, Initial residual = 2.49484e-07, Final residual = 2.49484e-07, No Iterations 0
smoothSolver:  Solving for Uy, Initial residual = 6.23843e-07, Final residual = 6.23843e-07, No Iterations 0
DICPCG:  Solving for p, Initial residual = 1.05821e-06, Final residual = 2.93021e-07, No Iterations 1
time step continuity errors : sum local = 1.0662e-09, global = -8.02893e-19, cumulative = -2.65593e-18
DICPCG:  Solving for p, Initial residual = 6.91268e-07, Final residual = 6.91268e-07, No Iterations 0
time step continuity errors : sum local = 1.9454e-09, global = -1.0088e-19, cumulative = -2.75681e-18
ExecutionTime = 0.16 s  ClockTime = 0 s

Time = 0.71

Courant Number mean: 0.224828 max: 0.926452
smoothSolver:  Solving for Ux, Initial residual = 2.45558e-07, Final residual = 2.45558e-07, No Iterations 0
smoothSolver:  Solving for Uy, Initial residual = 6.1347e-07, Final residual = 6.1347e-07, No Iterations 0
DICPCG:  Solving for p, Initial residual = 1.05426e-06, Final residual = 2.81598e-07, No Iterations 1
time step continuity errors : sum local = 1.0411e-09, global = 5.39286e-19, cumulative = -2.21752e-18
DICPCG:  Solving for p, Initial residual = 5.21477e-07, Final residual = 5.21477e-07, No Iterations 0
time step continuity errors : sum local = 1.57067e-09, global = 1.67437e-19, cumulative = -2.05008e-18
ExecutionTime = 0.16 s  ClockTime = 0 s

Time = 0.7125

Courant Number mean: 0.224828 max: 0.926452
smoothSolver:  Solving for Ux, Initial residual = 2.41182e-07, Final residual = 2.41182e-07, No Iterations 0
smoothSolver:  Solving for Uy, Initial residual = 6.03682e-07, Final residual = 6.03682e-07, No Iterations 0
DICPCG:  Solving for p, Initial residual = 7.60746e-07, Final residual = 7.60746e-07, No Iterations 0
time step continuity errors : sum local = 2.0989e-09, global = -9.008e-20, cumulative = -2.14016e-18
DICPCG:  Solving for p, Initial residual = 8.94408e-07, Final residual = 8.94408e-07, No Iterations 0
time step continuity errors : sum local = 2.39397e-09, global = 2.76987e-19, cumulative = -1.86318e-18
ExecutionTime = 0.16 s  ClockTime = 0 s

Time = 0.715

Courant Number mean: 0.224828 max: 0.926452
smoothSolver:  Solving for Ux, Initial residual = 2.38121e-07, Final residual = 2.38121e-07, No Iterations 0
smoothSolver:  Solving for Uy, Initial residual = 5.95941e-07, Final residual = 5.95941e-07, No Iterations 0
DICPCG:  Solving for p, Initial residual = 9.96006e-07, Final residual = 9.96006e-07, No Iterations 0
time step continuity errors : sum local = 2.61827e-09, global = -1.26357e-19, cumulative = -1.98954e-18
DICPCG:  Solving for p, Initial residual = 1.05705e-06, Final residual = 2.90206e-07, No Iterations 1
time step continuity errors : sum local = 1.06014e-09, global = -2.00565e-19, cumulative = -2.1901e-18
ExecutionTime = 0.16 s  ClockTime = 0 s

Time = 0.7175

Courant Number mean: 0.224828 max: 0.926452
smoothSolver:  Solving for Ux, Initial residual = 2.35269e-07, Final residual = 2.35269e-07, No Iterations 0
smoothSolver:  Solving for Uy, Initial residual = 5.87317e-07, Final residual = 5.87317e-07, No Iterations 0
DICPCG:  Solving for p, Initial residual = 7.46117e-07, Final residual = 7.46117e-07, No Iterations 0
time step continuity errors : sum local = 2.06664e-09, global = 2.98152e-19, cumulative = -1.89195e-18
DICPCG:  Solving for p, Initial residual = 1.04474e-06, Final residual = 2.78689e-07, No Iterations 1
time step continuity errors : sum local = 1.03471e-09, global = -5.42455e-19, cumulative = -2.4344e-18
ExecutionTime = 0.17 s  ClockTime = 0 s

Time = 0.72

Courant Number mean: 0.224828 max: 0.926452
smoothSolver:  Solving for Ux, Initial residual = 2.3047e-07, Final residual = 2.3047e-07, No Iterations 0
smoothSolver:  Solving for Uy, Initial residual = 5.76998e-07, Final residual = 5.76998e-07, No Iterations 0
DICPCG:  Solving for p, Initial residual = 5.58682e-07, Final residual = 5.58682e-07, No Iterations 0
time step continuity errors : sum local = 1.6528e-09, global = 3.12669e-19, cumulative = -2.12173e-18
DICPCG:  Solving for p, Initial residual = 7.51033e-07, Final residual = 7.51033e-07, No Iterations 0
time step continuity errors : sum local = 2.07743e-09, global = -2.33374e-19, cumulative = -2.35511e-18
ExecutionTime = 0.18 s  ClockTime = 0 s

Time = 0.7225

Courant Number mean: 0.224828 max: 0.926452
smoothSolver:  Solving for Ux, Initial residual = 2.27261e-07, Final residual = 2.27261e-07, No Iterations 0
smoothSolver:  Solving for Uy, Initial residual = 5.69047e-07, Final residual = 5.69047e-07, No Iterations 0
DICPCG:  Solving for p, Initial residual = 8.97256e-07, Final residual = 8.97256e-07, No Iterations 0
time step continuity errors : sum local = 2.40023e-09, global = -3.62098e-20, cumulative = -2.39132e-18
DICPCG:  Solving for p, Initial residual = 9.83807e-07, Final residual = 9.83807e-07, No Iterations 0
time step continuity errors : sum local = 2.59129e-09, global = 1.43764e-19, cumulative = -2.24755e-18
ExecutionTime = 0.18 s  ClockTime = 0 s

Time = 0.725

Courant Number mean: 0.224828 max: 0.926452
smoothSolver:  Solving for Ux, Initial residual = 2.24488e-07, Final residual = 2.24488e-07, No Iterations 0
smoothSolver:  Solving for Uy, Initial residual = 5.61945e-07, Final residual = 5.61945e-07, No Iterations 0
DICPCG:  Solving for p, Initial residual = 1.05047e-06, Final residual = 2.79028e-07, No Iterations 1
time step continuity errors : sum local = 1.03532e-09, global = -3.01306e-19, cumulative = -2.54886e-18
DICPCG:  Solving for p, Initial residual = 6.72564e-07, Final residual = 6.72564e-07, No Iterations 0
time step continuity errors : sum local = 1.9041e-09, global = -1.03961e-19, cumulative = -2.65282e-18
ExecutionTime = 0.18 s  ClockTime = 0 s

Time = 0.7275

Courant Number mean: 0.224828 max: 0.926452
smoothSolver:  Solving for Ux, Initial residual = 2.21001e-07, Final residual = 2.21001e-07, No Iterations 0
smoothSolver:  Solving for Uy, Initial residual = 5.5244e-07, Final residual = 5.5244e-07, No Iterations 0
DICPCG:  Solving for p, Initial residual = 1.03137e-06, Final residual = 2.66492e-07, No Iterations 1
time step continuity errors : sum local = 1.00751e-09, global = -3.78673e-19, cumulative = -3.03149e-18
DICPCG:  Solving for p, Initial residual = 4.95113e-07, Final residual = 4.95113e-07, No Iterations 0
time step continuity errors : sum local = 1.51216e-09, global = 8.08672e-20, cumulative = -2.95063e-18
ExecutionTime = 0.18 s  ClockTime = 0 s

Time = 0.73

Courant Number mean: 0.224828 max: 0.926452
smoothSolver:  Solving for Ux, Initial residual = 2.16957e-07, Final residual = 2.16957e-07, No Iterations 0
smoothSolver:  Solving for Uy, Initial residual = 5.43279e-07, Final residual = 5.43279e-07, No Iterations 0
DICPCG:  Solving for p, Initial residual = 7.23638e-07, Final residual = 7.23638e-07, No Iterations 0
time step continuity errors : sum local = 2.01662e-09, global = -3.93211e-19, cumulative = -3.34384e-18
DICPCG:  Solving for p, Initial residual = 8.52193e-07, Final residual = 8.52193e-07, No Iterations 0
time step continuity errors : sum local = 2.3004e-09, global = 7.21922e-20, cumulative = -3.27164e-18
ExecutionTime = 0.18 s  ClockTime = 0 s

Time = 0.7325

Courant Number mean: 0.224828 max: 0.926452
smoothSolver:  Solving for Ux, Initial residual = 2.14186e-07, Final residual = 2.14186e-07, No Iterations 0
smoothSolver:  Solving for Uy, Initial residual = 5.36228e-07, Final residual = 5.36228e-07, No Iterations 0
DICPCG:  Solving for p, Initial residual = 9.50397e-07, Final residual = 9.50397e-07, No Iterations 0
time step continuity errors : sum local = 2.51718e-09, global = -1.05466e-21, cumulative = -3.2727e-18
DICPCG:  Solving for p, Initial residual = 1.00921e-06, Final residual = 2.59094e-07, No Iterations 1
time step continuity errors : sum local = 9.90919e-10, global = 2.75079e-19, cumulative = -2.99762e-18
ExecutionTime = 0.18 s  ClockTime = 0 s

Time = 0.735

Courant Number mean: 0.224828 max: 0.926452
smoothSolver:  Solving for Ux, Initial residual = 2.11756e-07, Final residual = 2.11756e-07, No Iterations 0
smoothSolver:  Solving for Uy, Initial residual = 5.28645e-07, Final residual = 5.28645e-07, No Iterations 0
DICPCG:  Solving for p, Initial residual = 6.92433e-07, Final residual = 6.92433e-07, No Iterations 0
time step continuity errors : sum local = 1.94754e-09, global = -2.66693e-19, cumulative = -3.26431e-18
DICPCG:  Solving for p, Initial residual = 9.78978e-07, Final residual = 9.78978e-07, No Iterations 0
time step continuity errors : sum local = 2.5801e-09, global = 3.16893e-19, cumulative = -2.94742e-18
ExecutionTime = 0.18 s  ClockTime = 0 s

Time = 0.7375

Courant Number mean: 0.224828 max: 0.926452
smoothSolver:  Solving for Ux, Initial residual = 2.08024e-07, Final residual = 2.08024e-07, No Iterations 0
smoothSolver:  Solving for Uy, Initial residual = 5.20317e-07, Final residual = 5.20317e-07, No Iterations 0
DICPCG:  Solving for p, Initial residual = 1.19666e-06, Final residual = 2.47106e-07, No Iterations 1
time step continuity errors : sum local = 9.64233e-10, global = 1.80067e-20, cumulative = -2.92941e-18
DICPCG:  Solving for p, Initial residual = 6.02556e-07, Final residual = 6.02556e-07, No Iterations 0
time step continuity errors : sum local = 1.74886e-09, global = -3.33628e-19, cumulative = -3.26304e-18
ExecutionTime = 0.18 s  ClockTime = 0 s

Time = 0.74

Courant Number mean: 0.224828 max: 0.926452
smoothSolver:  Solving for Ux, Initial residual = 2.04948e-07, Final residual = 2.04948e-07, No Iterations 0
smoothSolver:  Solving for Uy, Initial residual = 5.12737e-07, Final residual = 5.12737e-07, No Iterations 0
DICPCG:  Solving for p, Initial residual = 9.47483e-07, Final residual = 9.47483e-07, No Iterations 0
time step continuity errors : sum local = 2.51028e-09, global = 1.38248e-19, cumulative = -3.12479e-18
DICPCG:  Solving for p, Initial residual = 1.14282e-06, Final residual = 2.38512e-07, No Iterations 1
time step continuity errors : sum local = 9.45001e-10, global = 3.0845e-19, cumulative = -2.81634e-18
ExecutionTime = 0.19 s  ClockTime = 0 s

Time = 0.7425

Courant Number mean: 0.224828 max: 0.926452
smoothSolver:  Solving for Ux, Initial residual = 2.02157e-07, Final residual = 2.02157e-07, No Iterations 0
smoothSolver:  Solving for Uy, Initial residual = 5.04685e-07, Final residual = 5.04685e-07, No Iterations 0
DICPCG:  Solving for p, Initial residual = 6.22077e-07, Final residual = 6.22077e-07, No Iterations 0
time step continuity errors : sum local = 1.79172e-09, global = -1.4137e-19, cumulative = -2.95771e-18
DICPCG:  Solving for p, Initial residual = 8.86234e-07, Final residual = 8.86234e-07, No Iterations 0
time step continuity errors : sum local = 2.37486e-09, global = -2.28167e-19, cumulative = -3.18588e-18
ExecutionTime = 0.19 s  ClockTime = 0 s

Time = 0.745

Courant Number mean: 0.224828 max: 0.926452
smoothSolver:  Solving for Ux, Initial residual = 1.98765e-07, Final residual = 1.98765e-07, No Iterations 0
smoothSolver:  Solving for Uy, Initial residual = 4.97017e-07, Final residual = 4.97017e-07, No Iterations 0
DICPCG:  Solving for p, Initial residual = 1.08824e-06, Final residual = 2.2937e-07, No Iterations 1
time step continuity errors : sum local = 9.2459e-10, global = 3.97631e-19, cumulative = -2.78825e-18
DICPCG:  Solving for p, Initial residual = 5.5082e-07, Final residual = 5.5082e-07, No Iterations 0
time step continuity errors : sum local = 1.63416e-09, global = 1.64914e-19, cumulative = -2.62334e-18
ExecutionTime = 0.19 s  ClockTime = 0 s

Time = 0.7475

Courant Number mean: 0.224828 max: 0.926452
smoothSolver:  Solving for Ux, Initial residual = 1.95836e-07, Final residual = 1.95836e-07, No Iterations 0
smoothSolver:  Solving for Uy, Initial residual = 4.89697e-07, Final residual = 4.89697e-07, No Iterations 0
DICPCG:  Solving for p, Initial residual = 8.66684e-07, Final residual = 8.66684e-07, No Iterations 0
time step continuity errors : sum local = 2.33143e-09, global = -2.00183e-19, cumulative = -2.82352e-18
DICPCG:  Solving for p, Initial residual = 1.04558e-06, Final residual = 2.21906e-07, No Iterations 1
time step continuity errors : sum local = 9.07881e-10, global = 3.41279e-19, cumulative = -2.48224e-18
ExecutionTime = 0.19 s  ClockTime = 0 s

Time = 0.75

Courant Number mean: 0.224828 max: 0.926452
smoothSolver:  Solving for Ux, Initial residual = 1.93235e-07, Final residual = 1.93235e-07, No Iterations 0
smoothSolver:  Solving for Uy, Initial residual = 4.8235e-07, Final residual = 4.8235e-07, No Iterations 0
DICPCG:  Solving for p, Initial residual = 5.75553e-07, Final residual = 5.75553e-07, No Iterations 0
time step continuity errors : sum local = 1.68856e-09, global = 3.29781e-19, cumulative = -2.15246e-18
DICPCG:  Solving for p, Initial residual = 8.22984e-07, Final residual = 8.22984e-07, No Iterations 0
time step continuity errors : sum local = 2.23478e-09, global = -3.38798e-19, cumulative = -2.49126e-18
ExecutionTime = 0.19 s  ClockTime = 0 s

Time = 0.7525

Courant Number mean: 0.224828 max: 0.926452
smoothSolver:  Solving for Ux, Initial residual = 1.90108e-07, Final residual = 1.90108e-07, No Iterations 0
smoothSolver:  Solving for Uy, Initial residual = 4.75165e-07, Final residual = 4.75165e-07, No Iterations 0
DICPCG:  Solving for p, Initial residual = 1.01094e-06, Final residual = 2.16795e-07, No Iterations 1
time step continuity errors : sum local = 8.96413e-10, global = 4.67616e-20, cumulative = -2.44449e-18
DICPCG:  Solving for p, Initial residual = 5.18359e-07, Final residual = 5.18359e-07, No Iterations 0
time step continuity errors : sum local = 1.5621e-09, global = -2.28147e-19, cumulative = -2.67264e-18
ExecutionTime = 0.2 s  ClockTime = 0 s

Time = 0.755

Courant Number mean: 0.224828 max: 0.926452
smoothSolver:  Solving for Ux, Initial residual = 1.8734e-07, Final residual = 1.8734e-07, No Iterations 0
smoothSolver:  Solving for Uy, Initial residual = 4.68243e-07, Final residual = 4.68243e-07, No Iterations 0
DICPCG:  Solving for p, Initial residual = 8.1646e-07, Final residual = 8.1646e-07, No Iterations 0
time step continuity errors : sum local = 2.22016e-09, global = 5.53074e-20, cumulative = -2.61733e-18
DICPCG:  Solving for p, Initial residual = 9.8599e-07, Final residual = 9.8599e-07, No Iterations 0
time step continuity errors : sum local = 2.59441e-09, global = -1.00172e-19, cumulative = -2.71751e-18
ExecutionTime = 0.2 s  ClockTime = 0 s

Time = 0.7575

Courant Number mean: 0.224828 max: 0.926452
smoothSolver:  Solving for Ux, Initial residual = 1.84776e-07, Final residual = 1.84776e-07, No Iterations 0
smoothSolver:  Solving for Uy, Initial residual = 4.619e-07, Final residual = 4.619e-07, No Iterations 0
DICPCG:  Solving for p, Initial residual = 1.11479e-06, Final residual = 2.18764e-07, No Iterations 1
time step continuity errors : sum local = 9.0058e-10, global = 9.90135e-20, cumulative = -2.61849e-18
DICPCG:  Solving for p, Initial residual = 5.98169e-07, Final residual = 5.98169e-07, No Iterations 0
time step continuity errors : sum local = 1.73816e-09, global = -4.99674e-19, cumulative = -3.11817e-18
ExecutionTime = 0.2 s  ClockTime = 0 s

Time = 0.76

Courant Number mean: 0.224828 max: 0.926452
smoothSolver:  Solving for Ux, Initial residual = 1.82285e-07, Final residual = 1.82285e-07, No Iterations 0
smoothSolver:  Solving for Uy, Initial residual = 4.54955e-07, Final residual = 4.54955e-07, No Iterations 0
DICPCG:  Solving for p, Initial residual = 9.6028e-07, Final residual = 9.6028e-07, No Iterations 0
time step continuity errors : sum local = 2.53755e-09, global = 3.28163e-19, cumulative = -2.79e-18
DICPCG:  Solving for p, Initial residual = 1.1677e-06, Final residual = 2.21806e-07, No Iterations 1
time step continuity errors : sum local = 9.07177e-10, global = -2.4558e-19, cumulative = -3.03558e-18
ExecutionTime = 0.2 s  ClockTime = 0 s

Time = 0.7625

Courant Number mean: 0.224828 max: 0.926452
smoothSolver:  Solving for Ux, Initial residual = 1.79865e-07, Final residual = 1.79865e-07, No Iterations 0
smoothSolver:  Solving for Uy, Initial residual = 4.48767e-07, Final residual = 4.48767e-07, No Iterations 0
DICPCG:  Solving for p, Initial residual = 6.17508e-07, Final residual = 6.17508e-07, No Iterations 0
time step continuity errors : sum local = 1.78069e-09, global = 6.61346e-19, cumulative = -2.37424e-18
DICPCG:  Solving for p, Initial residual = 8.95618e-07, Final residual = 8.95618e-07, No Iterations 0
time step continuity errors : sum local = 2.39464e-09, global = -4.4157e-19, cumulative = -2.81581e-18
ExecutionTime = 0.2 s  ClockTime = 0 s

Time = 0.765

Courant Number mean: 0.224828 max: 0.926452
smoothSolver:  Solving for Ux, Initial residual = 1.76735e-07, Final residual = 1.76735e-07, No Iterations 0
smoothSolver:  Solving for Uy, Initial residual = 4.41599e-07, Final residual = 4.41599e-07, No Iterations 0
DICPCG:  Solving for p, Initial residual = 1.10771e-06, Final residual = 2.26038e-07, No Iterations 1
time step continuity errors : sum local = 9.16398e-10, global = 2.86396e-19, cumulative = -2.52941e-18
DICPCG:  Solving for p, Initial residual = 5.60441e-07, Final residual = 5.60441e-07, No Iterations 0
time step continuity errors : sum local = 1.65464e-09, global = -4.22369e-19, cumulative = -2.95178e-18
ExecutionTime = 0.2 s  ClockTime = 0 s

Time = 0.7675

Courant Number mean: 0.224828 max: 0.926452
smoothSolver:  Solving for Ux, Initial residual = 1.74136e-07, Final residual = 1.74136e-07, No Iterations 0
smoothSolver:  Solving for Uy, Initial residual = 4.34663e-07, Final residual = 4.34663e-07, No Iterations 0
DICPCG:  Solving for p, Initial residual = 8.84924e-07, Final residual = 8.84924e-07, No Iterations 0
time step continuity errors : sum local = 2.37097e-09, global = 4.06714e-19, cumulative = -2.54506e-18
DICPCG:  Solving for p, Initial residual = 1.07218e-06, Final residual = 2.28814e-07, No Iterations 1
time step continuity errors : sum local = 9.22444e-10, global = 2.86711e-19, cumulative = -2.25835e-18
ExecutionTime = 0.2 s  ClockTime = 0 s

Time = 0.77

Courant Number mean: 0.224828 max: 0.926452
smoothSolver:  Solving for Ux, Initial residual = 1.71847e-07, Final residual = 1.71847e-07, No Iterations 0
smoothSolver:  Solving for Uy, Initial residual = 4.28775e-07, Final residual = 4.28775e-07, No Iterations 0
DICPCG:  Solving for p, Initial residual = 6.06098e-07, Final residual = 6.06098e-07, No Iterations 0
time step continuity errors : sum local = 1.75531e-09, global = -4.10385e-19, cumulative = -2.66874e-18
DICPCG:  Solving for p, Initial residual = 8.70213e-07, Final residual = 8.70213e-07, No Iterations 0
time step continuity errors : sum local = 2.33837e-09, global = 1.12916e-18, cumulative = -1.53958e-18
ExecutionTime = 0.2 s  ClockTime = 0 s

Time = 0.7725

Courant Number mean: 0.224828 max: 0.926452
smoothSolver:  Solving for Ux, Initial residual = 1.68858e-07, Final residual = 1.68858e-07, No Iterations 0
smoothSolver:  Solving for Uy, Initial residual = 4.21875e-07, Final residual = 4.21875e-07, No Iterations 0
DICPCG:  Solving for p, Initial residual = 1.07176e-06, Final residual = 2.30633e-07, No Iterations 1
[...]
time step continuity errors : sum local = 2.17043e-09, global = -4.91552e-19, cumulative = -1.35852e-17
DICPCG:  Solving for p, Initial residual = 1.08181e-06, Final residual = 1.31133e-07, No Iterations 1
time step continuity errors : sum local = 5.61221e-10, global = 2.01315e-20, cumulative = -1.3565e-17
ExecutionTime = 1.6 s  ClockTime = 2 s

Time = 2.935

Courant Number mean: 0.22483 max: 0.926452
smoothSolver:  Solving for Ux, Initial residual = 1.7369e-08, Final residual = 1.7369e-08, No Iterations 0
smoothSolver:  Solving for Uy, Initial residual = 4.5225e-08, Final residual = 4.5225e-08, No Iterations 0
DICPCG:  Solving for p, Initial residual = 5.02047e-07, Final residual = 5.02047e-07, No Iterations 0
time step continuity errors : sum local = 1.37997e-09, global = 1.56921e-19, cumulative = -1.34081e-17
DICPCG:  Solving for p, Initial residual = 7.76205e-07, Final residual = 7.76205e-07, No Iterations 0
time step continuity errors : sum local = 1.98518e-09, global = -2.86659e-19, cumulative = -1.36948e-17
ExecutionTime = 1.6 s  ClockTime = 2 s

Time = 2.9375

Courant Number mean: 0.22483 max: 0.926452
smoothSolver:  Solving for Ux, Initial residual = 8.64638e-09, Final residual = 8.64638e-09, No Iterations 0
smoothSolver:  Solving for Uy, Initial residual = 2.25031e-08, Final residual = 2.25031e-08, No Iterations 0
DICPCG:  Solving for p, Initial residual = 9.93179e-07, Final residual = 9.93179e-07, No Iterations 0
time step continuity errors : sum local = 2.46417e-09, global = 5.94381e-20, cumulative = -1.36353e-17
DICPCG:  Solving for p, Initial residual = 1.13085e-06, Final residual = 1.31935e-07, No Iterations 1
time step continuity errors : sum local = 5.6274e-10, global = -3.07401e-20, cumulative = -1.36661e-17
ExecutionTime = 1.6 s  ClockTime = 2 s

Time = 2.94

Courant Number mean: 0.22483 max: 0.926452
smoothSolver:  Solving for Ux, Initial residual = 2.1127e-08, Final residual = 2.1127e-08, No Iterations 0
smoothSolver:  Solving for Uy, Initial residual = 5.50237e-08, Final residual = 5.50237e-08, No Iterations 0
DICPCG:  Solving for p, Initial residual = 5.96985e-07, Final residual = 5.96985e-07, No Iterations 0
time step continuity errors : sum local = 1.58937e-09, global = 2.48428e-19, cumulative = -1.34176e-17
DICPCG:  Solving for p, Initial residual = 9.3319e-07, Final residual = 9.3319e-07, No Iterations 0
time step continuity errors : sum local = 2.33156e-09, global = 2.50408e-19, cumulative = -1.31672e-17
ExecutionTime = 1.6 s  ClockTime = 2 s

Time = 2.9425

Courant Number mean: 0.22483 max: 0.926452
smoothSolver:  Solving for Ux, Initial residual = 1.05706e-08, Final residual = 1.05706e-08, No Iterations 0
smoothSolver:  Solving for Uy, Initial residual = 2.75695e-08, Final residual = 2.75695e-08, No Iterations 0
DICPCG:  Solving for p, Initial residual = 1.19912e-06, Final residual = 1.32162e-07, No Iterations 1
time step continuity errors : sum local = 5.63033e-10, global = -6.93095e-19, cumulative = -1.38603e-17
DICPCG:  Solving for p, Initial residual = 5.06331e-07, Final residual = 5.06331e-07, No Iterations 0
time step continuity errors : sum local = 1.38899e-09, global = 5.51962e-19, cumulative = -1.33084e-17
ExecutionTime = 1.6 s  ClockTime = 2 s

Time = 2.945

Courant Number mean: 0.22483 max: 0.926452
smoothSolver:  Solving for Ux, Initial residual = 1.41083e-08, Final residual = 1.41083e-08, No Iterations 0
smoothSolver:  Solving for Uy, Initial residual = 3.67258e-08, Final residual = 3.67258e-08, No Iterations 0
DICPCG:  Solving for p, Initial residual = 8.71658e-07, Final residual = 8.71658e-07, No Iterations 0
time step continuity errors : sum local = 2.19545e-09, global = -3.38524e-20, cumulative = -1.33422e-17
DICPCG:  Solving for p, Initial residual = 1.09648e-06, Final residual = 1.31326e-07, No Iterations 1
time step continuity errors : sum local = 5.60948e-10, global = -5.37616e-19, cumulative = -1.38798e-17
ExecutionTime = 1.6 s  ClockTime = 2 s

Time = 2.9475

Courant Number mean: 0.22483 max: 0.926452
smoothSolver:  Solving for Ux, Initial residual = 1.76275e-08, Final residual = 1.76275e-08, No Iterations 0
smoothSolver:  Solving for Uy, Initial residual = 4.59185e-08, Final residual = 4.59185e-08, No Iterations 0
DICPCG:  Solving for p, Initial residual = 5.09155e-07, Final residual = 5.09155e-07, No Iterations 0
time step continuity errors : sum local = 1.39501e-09, global = -2.01077e-19, cumulative = -1.40809e-17
DICPCG:  Solving for p, Initial residual = 7.88054e-07, Final residual = 7.88054e-07, No Iterations 0
time step continuity errors : sum local = 2.0107e-09, global = -3.90073e-19, cumulative = -1.4471e-17
ExecutionTime = 1.61 s  ClockTime = 2 s

Time = 2.95

Courant Number mean: 0.22483 max: 0.926452
smoothSolver:  Solving for Ux, Initial residual = 8.7814e-09, Final residual = 8.7814e-09, No Iterations 0
smoothSolver:  Solving for Uy, Initial residual = 2.28801e-08, Final residual = 2.28801e-08, No Iterations 0
DICPCG:  Solving for p, Initial residual = 1.00866e-06, Final residual = 1.29981e-07, No Iterations 1
time step continuity errors : sum local = 5.57767e-10, global = -5.44859e-19, cumulative = -1.50158e-17
DICPCG:  Solving for p, Initial residual = 4.37212e-07, Final residual = 4.37212e-07, No Iterations 0
time step continuity errors : sum local = 1.23595e-09, global = 1.77379e-19, cumulative = -1.48385e-17
ExecutionTime = 1.61 s  ClockTime = 3 s

Time = 2.9525

Courant Number mean: 0.22483 max: 0.926452
smoothSolver:  Solving for Ux, Initial residual = 1.18667e-08, Final residual = 1.18667e-08, No Iterations 0
smoothSolver:  Solving for Uy, Initial residual = 3.08756e-08, Final residual = 3.08756e-08, No Iterations 0
DICPCG:  Solving for p, Initial residual = 7.44317e-07, Final residual = 7.44317e-07, No Iterations 0
time step continuity errors : sum local = 1.91388e-09, global = -2.82617e-19, cumulative = -1.51211e-17
DICPCG:  Solving for p, Initial residual = 9.32634e-07, Final residual = 9.32634e-07, No Iterations 0
time step continuity errors : sum local = 2.3296e-09, global = -2.11003e-19, cumulative = -1.53321e-17
ExecutionTime = 1.61 s  ClockTime = 3 s

Time = 2.955

Courant Number mean: 0.22483 max: 0.926452
smoothSolver:  Solving for Ux, Initial residual = 5.97453e-09, Final residual = 5.97453e-09, No Iterations 0
smoothSolver:  Solving for Uy, Initial residual = 1.55935e-08, Final residual = 1.55935e-08, No Iterations 0
DICPCG:  Solving for p, Initial residual = 1.08136e-06, Final residual = 1.30866e-07, No Iterations 1
time step continuity errors : sum local = 5.59467e-10, global = -6.83623e-19, cumulative = -1.60157e-17
DICPCG:  Solving for p, Initial residual = 5.18843e-07, Final residual = 5.18843e-07, No Iterations 0
time step continuity errors : sum local = 1.41596e-09, global = -5.24779e-19, cumulative = -1.65405e-17
ExecutionTime = 1.61 s  ClockTime = 3 s

Time = 2.9575

Courant Number mean: 0.22483 max: 0.926452
smoothSolver:  Solving for Ux, Initial residual = 1.45049e-08, Final residual = 1.45049e-08, No Iterations 0
smoothSolver:  Solving for Uy, Initial residual = 3.77637e-08, Final residual = 3.77637e-08, No Iterations 0
DICPCG:  Solving for p, Initial residual = 8.94076e-07, Final residual = 8.94076e-07, No Iterations 0
time step continuity errors : sum local = 2.2443e-09, global = 2.76056e-19, cumulative = -1.62644e-17
DICPCG:  Solving for p, Initial residual = 1.12557e-06, Final residual = 1.30879e-07, No Iterations 1
time step continuity errors : sum local = 5.59289e-10, global = 7.15977e-20, cumulative = -1.61928e-17
ExecutionTime = 1.61 s  ClockTime = 3 s

Time = 2.96

Courant Number mean: 0.22483 max: 0.926452
smoothSolver:  Solving for Ux, Initial residual = 1.80775e-08, Final residual = 1.80775e-08, No Iterations 0
smoothSolver:  Solving for Uy, Initial residual = 4.70744e-08, Final residual = 4.70744e-08, No Iterations 0
DICPCG:  Solving for p, Initial residual = 5.20335e-07, Final residual = 5.20335e-07, No Iterations 0
time step continuity errors : sum local = 1.41898e-09, global = 1.6146e-19, cumulative = -1.60314e-17
DICPCG:  Solving for p, Initial residual = 8.05915e-07, Final residual = 8.05915e-07, No Iterations 0
time step continuity errors : sum local = 2.0494e-09, global = -5.82444e-19, cumulative = -1.66138e-17
ExecutionTime = 1.62 s  ClockTime = 3 s

Time = 2.9625

Courant Number mean: 0.22483 max: 0.926452
smoothSolver:  Solving for Ux, Initial residual = 9.01934e-09, Final residual = 9.01934e-09, No Iterations 0
smoothSolver:  Solving for Uy, Initial residual = 2.35067e-08, Final residual = 2.35067e-08, No Iterations 0
DICPCG:  Solving for p, Initial residual = 1.0317e-06, Final residual = 1.30053e-07, No Iterations 1
time step continuity errors : sum local = 5.57227e-10, global = -1.61321e-19, cumulative = -1.67751e-17
DICPCG:  Solving for p, Initial residual = 4.4585e-07, Final residual = 4.4585e-07, No Iterations 0
time step continuity errors : sum local = 1.25436e-09, global = -3.91205e-20, cumulative = -1.68143e-17
ExecutionTime = 1.62 s  ClockTime = 3 s

Time = 2.965

Courant Number mean: 0.22483 max: 0.926452
smoothSolver:  Solving for Ux, Initial residual = 1.2147e-08, Final residual = 1.2147e-08, No Iterations 0
smoothSolver:  Solving for Uy, Initial residual = 3.16422e-08, Final residual = 3.16422e-08, No Iterations 0
DICPCG:  Solving for p, Initial residual = 7.60865e-07, Final residual = 7.60865e-07, No Iterations 0
time step continuity errors : sum local = 1.94976e-09, global = -4.96071e-19, cumulative = -1.73103e-17
DICPCG:  Solving for p, Initial residual = 9.54162e-07, Final residual = 9.54162e-07, No Iterations 0
time step continuity errors : sum local = 2.37647e-09, global = 7.40456e-19, cumulative = -1.65699e-17
ExecutionTime = 1.63 s  ClockTime = 3 s

Time = 2.9675

Courant Number mean: 0.22483 max: 0.926452
smoothSolver:  Solving for Ux, Initial residual = 6.1279e-09, Final residual = 6.1279e-09, No Iterations 0
smoothSolver:  Solving for Uy, Initial residual = 1.60031e-08, Final residual = 1.60031e-08, No Iterations 0
DICPCG:  Solving for p, Initial residual = 1.10695e-06, Final residual = 1.30447e-07, No Iterations 1
time step continuity errors : sum local = 5.57871e-10, global = -4.36265e-19, cumulative = -1.70061e-17
DICPCG:  Solving for p, Initial residual = 5.28867e-07, Final residual = 5.28867e-07, No Iterations 0
time step continuity errors : sum local = 1.43737e-09, global = -9.01472e-20, cumulative = -1.70963e-17
ExecutionTime = 1.63 s  ClockTime = 3 s

Time = 2.97

Courant Number mean: 0.22483 max: 0.926452
smoothSolver:  Solving for Ux, Initial residual = 1.48331e-08, Final residual = 1.48331e-08, No Iterations 0
smoothSolver:  Solving for Uy, Initial residual = 3.86336e-08, Final residual = 3.86336e-08, No Iterations 0
DICPCG:  Solving for p, Initial residual = 9.12589e-07, Final residual = 9.12589e-07, No Iterations 0
time step continuity errors : sum local = 2.28445e-09, global = -3.12731e-19, cumulative = -1.7409e-17
DICPCG:  Solving for p, Initial residual = 1.14911e-06, Final residual = 1.31036e-07, No Iterations 1
time step continuity errors : sum local = 5.58941e-10, global = 4.33132e-19, cumulative = -1.69759e-17
ExecutionTime = 1.63 s  ClockTime = 3 s

Time = 2.9725

Courant Number mean: 0.22483 max: 0.926452
smoothSolver:  Solving for Ux, Initial residual = 1.84617e-08, Final residual = 1.84617e-08, No Iterations 0
smoothSolver:  Solving for Uy, Initial residual = 4.80938e-08, Final residual = 4.80938e-08, No Iterations 0
DICPCG:  Solving for p, Initial residual = 5.3016e-07, Final residual = 5.3016e-07, No Iterations 0
time step continuity errors : sum local = 1.44002e-09, global = 2.72861e-19, cumulative = -1.6703e-17
DICPCG:  Solving for p, Initial residual = 8.22365e-07, Final residual = 8.22365e-07, No Iterations 0
time step continuity errors : sum local = 2.08507e-09, global = -4.56707e-19, cumulative = -1.71597e-17
ExecutionTime = 1.63 s  ClockTime = 3 s

Time = 2.975

Courant Number mean: 0.22483 max: 0.926452
smoothSolver:  Solving for Ux, Initial residual = 9.2126e-09, Final residual = 9.2126e-09, No Iterations 0
smoothSolver:  Solving for Uy, Initial residual = 2.40349e-08, Final residual = 2.40349e-08, No Iterations 0
DICPCG:  Solving for p, Initial residual = 1.05336e-06, Final residual = 1.29679e-07, No Iterations 1
time step continuity errors : sum local = 5.5573e-10, global = -2.58422e-19, cumulative = -1.74182e-17
DICPCG:  Solving for p, Initial residual = 4.52733e-07, Final residual = 4.52733e-07, No Iterations 0
time step continuity errors : sum local = 1.26885e-09, global = 5.83886e-20, cumulative = -1.73598e-17
ExecutionTime = 1.63 s  ClockTime = 3 s

Time = 2.9775

Courant Number mean: 0.22483 max: 0.926452
smoothSolver:  Solving for Ux, Initial residual = 1.23872e-08, Final residual = 1.23872e-08, No Iterations 0
smoothSolver:  Solving for Uy, Initial residual = 3.22542e-08, Final residual = 3.22542e-08, No Iterations 0
DICPCG:  Solving for p, Initial residual = 7.74454e-07, Final residual = 7.74454e-07, No Iterations 0
time step continuity errors : sum local = 1.97905e-09, global = -2.29108e-19, cumulative = -1.75889e-17
DICPCG:  Solving for p, Initial residual = 9.71574e-07, Final residual = 9.71574e-07, No Iterations 0
time step continuity errors : sum local = 2.4142e-09, global = 7.95541e-20, cumulative = -1.75093e-17
ExecutionTime = 1.63 s  ClockTime = 3 s

Time = 2.98

Courant Number mean: 0.22483 max: 0.926452
smoothSolver:  Solving for Ux, Initial residual = 6.25473e-09, Final residual = 6.25473e-09, No Iterations 0
smoothSolver:  Solving for Uy, Initial residual = 1.63232e-08, Final residual = 1.63232e-08, No Iterations 0
DICPCG:  Solving for p, Initial residual = 1.1276e-06, Final residual = 1.30556e-07, No Iterations 1
time step continuity errors : sum local = 5.57421e-10, global = 6.13918e-19, cumulative = -1.68954e-17
DICPCG:  Solving for p, Initial residual = 5.37966e-07, Final residual = 5.37966e-07, No Iterations 0
time step continuity errors : sum local = 1.4568e-09, global = -8.28628e-19, cumulative = -1.7724e-17
ExecutionTime = 1.63 s  ClockTime = 3 s

Time = 2.9825

Courant Number mean: 0.22483 max: 0.926452
smoothSolver:  Solving for Ux, Initial residual = 1.50979e-08, Final residual = 1.50979e-08, No Iterations 0
smoothSolver:  Solving for Uy, Initial residual = 3.93784e-08, Final residual = 3.93784e-08, No Iterations 0
DICPCG:  Solving for p, Initial residual = 9.28935e-07, Final residual = 9.28935e-07, No Iterations 0
time step continuity errors : sum local = 2.31989e-09, global = 6.02337e-19, cumulative = -1.71217e-17
DICPCG:  Solving for p, Initial residual = 1.17018e-06, Final residual = 1.30737e-07, No Iterations 1
time step continuity errors : sum local = 5.57611e-10, global = 3.59208e-19, cumulative = -1.67625e-17
ExecutionTime = 1.64 s  ClockTime = 3 s

Time = 2.985

Courant Number mean: 0.22483 max: 0.926452
smoothSolver:  Solving for Ux, Initial residual = 1.87866e-08, Final residual = 1.87866e-08, No Iterations 0
smoothSolver:  Solving for Uy, Initial residual = 4.89025e-08, Final residual = 4.89025e-08, No Iterations 0
DICPCG:  Solving for p, Initial residual = 5.37543e-07, Final residual = 5.37543e-07, No Iterations 0
time step continuity errors : sum local = 1.45561e-09, global = -3.874e-19, cumulative = -1.71499e-17
DICPCG:  Solving for p, Initial residual = 8.35344e-07, Final residual = 8.35344e-07, No Iterations 0
time step continuity errors : sum local = 2.11301e-09, global = -4.21237e-19, cumulative = -1.75711e-17
ExecutionTime = 1.64 s  ClockTime = 3 s

Time = 2.9875

Courant Number mean: 0.22483 max: 0.926452
smoothSolver:  Solving for Ux, Initial residual = 9.37256e-09, Final residual = 9.37256e-09, No Iterations 0
smoothSolver:  Solving for Uy, Initial residual = 2.4449e-08, Final residual = 2.4449e-08, No Iterations 0
DICPCG:  Solving for p, Initial residual = 1.07102e-06, Final residual = 1.29727e-07, No Iterations 1
time step continuity errors : sum local = 5.55146e-10, global = 4.13058e-19, cumulative = -1.71581e-17
DICPCG:  Solving for p, Initial residual = 4.59649e-07, Final residual = 4.59649e-07, No Iterations 0
time step continuity errors : sum local = 1.28346e-09, global = 1.75879e-20, cumulative = -1.71405e-17
ExecutionTime = 1.64 s  ClockTime = 3 s

Time = 2.99

Courant Number mean: 0.22483 max: 0.926452
smoothSolver:  Solving for Ux, Initial residual = 1.25769e-08, Final residual = 1.25769e-08, No Iterations 0
smoothSolver:  Solving for Uy, Initial residual = 3.2793e-08, Final residual = 3.2793e-08, No Iterations 0
DICPCG:  Solving for p, Initial residual = 7.8591e-07, Final residual = 7.8591e-07, No Iterations 0
time step continuity errors : sum local = 2.00369e-09, global = -1.49689e-19, cumulative = -1.72902e-17
DICPCG:  Solving for p, Initial residual = 9.86273e-07, Final residual = 9.86273e-07, No Iterations 0
time step continuity errors : sum local = 2.446e-09, global = -2.04753e-19, cumulative = -1.74949e-17
ExecutionTime = 1.64 s  ClockTime = 3 s

Time = 2.9925

Courant Number mean: 0.22483 max: 0.926452
smoothSolver:  Solving for Ux, Initial residual = 6.34624e-09, Final residual = 6.34624e-09, No Iterations 0
smoothSolver:  Solving for Uy, Initial residual = 1.65855e-08, Final residual = 1.65855e-08, No Iterations 0
DICPCG:  Solving for p, Initial residual = 1.14519e-06, Final residual = 1.30274e-07, No Iterations 1
time step continuity errors : sum local = 5.56128e-10, global = 2.93075e-19, cumulative = -1.72018e-17
DICPCG:  Solving for p, Initial residual = 5.44322e-07, Final residual = 5.44322e-07, No Iterations 0
time step continuity errors : sum local = 1.47014e-09, global = -9.11165e-19, cumulative = -1.8113e-17
ExecutionTime = 1.64 s  ClockTime = 3 s

Time = 2.995

Courant Number mean: 0.22483 max: 0.926452
smoothSolver:  Solving for Ux, Initial residual = 1.53338e-08, Final residual = 1.53338e-08, No Iterations 0
smoothSolver:  Solving for Uy, Initial residual = 3.99792e-08, Final residual = 3.99792e-08, No Iterations 0
DICPCG:  Solving for p, Initial residual = 9.42598e-07, Final residual = 9.42598e-07, No Iterations 0
time step continuity errors : sum local = 2.34935e-09, global = -4.98113e-19, cumulative = -1.86111e-17
DICPCG:  Solving for p, Initial residual = 1.18856e-06, Final residual = 1.30779e-07, No Iterations 1
time step continuity errors : sum local = 5.57017e-10, global = 1.30462e-19, cumulative = -1.84807e-17
ExecutionTime = 1.64 s  ClockTime = 3 s

Time = 2.9975

Courant Number mean: 0.22483 max: 0.926452
smoothSolver:  Solving for Ux, Initial residual = 1.90336e-08, Final residual = 1.90336e-08, No Iterations 0
smoothSolver:  Solving for Uy, Initial residual = 4.95663e-08, Final residual = 4.95663e-08, No Iterations 0
DICPCG:  Solving for p, Initial residual = 5.44396e-07, Final residual = 5.44396e-07, No Iterations 0
time step continuity errors : sum local = 1.47008e-09, global = -1.33528e-19, cumulative = -1.86142e-17
DICPCG:  Solving for p, Initial residual = 8.45782e-07, Final residual = 8.45782e-07, No Iterations 0
time step continuity errors : sum local = 2.13541e-09, global = 3.1163e-19, cumulative = -1.83026e-17
ExecutionTime = 1.64 s  ClockTime = 3 s

Time = 3

Courant Number mean: 0.22483 max: 0.926452
smoothSolver:  Solving for Ux, Initial residual = 9.49906e-09, Final residual = 9.49906e-09, No Iterations 0
smoothSolver:  Solving for Uy, Initial residual = 2.4783e-08, Final residual = 2.4783e-08, No Iterations 0
DICPCG:  Solving for p, Initial residual = 1.08515e-06, Final residual = 1.29459e-07, No Iterations 1
time step continuity errors : sum local = 5.53886e-10, global = 6.22019e-19, cumulative = -1.76805e-17
DICPCG:  Solving for p, Initial residual = 4.643e-07, Final residual = 4.643e-07, No Iterations 0
time step continuity errors : sum local = 1.29303e-09, global = -3.73022e-19, cumulative = -1.80536e-17
ExecutionTime = 1.65 s  ClockTime = 3 s

End

