/*---------------------------------------------------------------------------*\
  =========                 |
  \\      /  F ield         | OpenFOAM: The Open Source CFD Toolbox
   \\    /   O peration     | Website:  https://openfoam.org
    \\  /    A nd           | Version:  7
     \\/     M anipulation  |
\*---------------------------------------------------------------------------*/
Build  : 7
Exec   : icoFoam
Date   : Apr 23 2025
Time   : 17:44:53
Host   : "c100-010.frontera.tacc.utexas.edu"
PID    : 93698
I/O    : uncollated
Case   : /work2/10249/ctshep3141/frontera/Research/meshes/prelim_run
nProcs : 1
sigFpe : Enabling floating point exception trapping (FOAM_SIGFPE).
fileModificationChecking : Monitoring run-time modified files using timeStampMaster (fileModificationSkew 10)
allowSystemOperations : Allowing user-supplied system call operations

// * * * * * * * * * * * * * * * * * * * * * * * * * * * * * * * * * * * * * //
Create time

Create mesh for time = 0

--> FOAM Warning : 
    From function void Foam::wedgePolyPatch::calcGeometry(Foam::PstreamBuffers &)
    in file meshes/polyMesh/polyPatches/constraint/wedge/wedgePolyPatch.C at line 70
    Wedge patch 'right' is not planar.
At local face at (797.284 -9.08516 318.448) the normal (-4.37675e-07 -0.99875 0.0499788) differs from the average normal (1.58443e-08 -0.99875 0.0499792) by 3.49211e-13
Either correct the patch or split it into planar parts
--> FOAM Warning : 
    From function void Foam::wedgePolyPatch::calcGeometry(Foam::PstreamBuffers &)
    in file meshes/polyMesh/polyPatches/constraint/wedge/wedgePolyPatch.C at line 70
    Wedge patch 'right' is not planar.
At local face at (285.83 -11.9033 262.133) the normal (-6.66246e-07 -0.99875 0.0499796) differs from the average normal (1.58443e-08 -0.99875 0.0499792) by 5.77757e-13
Either correct the patch or split it into planar parts
--> FOAM Warning : 
    From function void Foam::wedgePolyPatch::calcGeometry(Foam::PstreamBuffers &)
    in file meshes/polyMesh/polyPatches/constraint/wedge/wedgePolyPatch.C at line 70
    Wedge patch 'right' is not planar.
At local face at (14.4328 -11.2433 275.32) the normal (2.33175e-07 -0.99875 0.0499789) differs from the average normal (1.58443e-08 -0.99875 0.0499792) by 1.42684e-13
Either correct the patch or split it into planar parts
--> FOAM Warning : 
    From function void Foam::wedgePolyPatch::calcGeometry(Foam::PstreamBuffers &)
    in file meshes/polyMesh/polyPatches/constraint/wedge/wedgePolyPatch.C at line 70
    Wedge patch 'right' is not planar.
At local face at (985.92 -11.2568 275.051) the normal (7.7198e-07 -0.99875 0.0499796) differs from the average normal (1.58443e-08 -0.99875 0.0499792) by 7.05717e-13
Either correct the patch or split it into planar parts
--> FOAM Warning : 
    From function void Foam::wedgePolyPatch::calcGeometry(Foam::PstreamBuffers &)
    in file meshes/polyMesh/polyPatches/constraint/wedge/wedgePolyPatch.C at line 70
    Wedge patch 'right' is not planar.
At local face at (899.371 -23.5754 28.8856) the normal (1.04076e-06 -0.99875 0.0499799) differs from the average normal (1.58443e-08 -0.99875 0.0499792) by 1.52211e-12
Either correct the patch or split it into planar parts
--> FOAM Warning : 
    From function void Foam::wedgePolyPatch::calcGeometry(Foam::PstreamBuffers &)
    in file meshes/polyMesh/polyPatches/constraint/wedge/wedgePolyPatch.C at line 70
    Wedge patch 'right' is not planar.
At local face at (801.129 -23.7409 25.5775) the normal (3.72202e-07 -0.99875 0.0499802) differs from the average normal (1.58443e-08 -0.99875 0.0499792) by 1.11476e-12
Either correct the patch or split it into planar parts
--> FOAM Warning : 
    From function void Foam::wedgePolyPatch::calcGeometry(Foam::PstreamBuffers &)
    in file meshes/polyMesh/polyPatches/constraint/wedge/wedgePolyPatch.C at line 70
    Wedge patch 'right' is not planar.
At local face at (100.919 -23.7708 24.9809) the normal (1.68228e-07 -0.99875 0.0499785) differs from the average normal (1.58443e-08 -0.99875 0.0499792) by 5.84302e-13
Either correct the patch or split it into planar parts
--> FOAM Warning : 
    From function void Foam::wedgePolyPatch::calcGeometry(Foam::PstreamBuffers &)
    in file meshes/polyMesh/polyPatches/constraint/wedge/wedgePolyPatch.C at line 70
    Wedge patch 'right' is not planar.
At local face at (349.42 -23.5996 28.4018) the normal (-3.2049e-07 -0.99875 0.0499801) differs from the average normal (1.58443e-08 -0.99875 0.0499792) by 9.50618e-13
Either correct the patch or split it into planar parts
--> FOAM Warning : 
    From function void Foam::wedgePolyPatch::calcGeometry(Foam::PstreamBuffers &)
    in file meshes/polyMesh/polyPatches/constraint/wedge/wedgePolyPatch.C at line 70
    Wedge patch 'right' is not planar.
At local face at (850.25 -23.7234 25.9268) the normal (-9.777e-07 -0.99875 0.0499798) differs from the average normal (1.58443e-08 -0.99875 0.0499792) by 1.38216e-12
Either correct the patch or split it into planar parts
--> FOAM Warning : 
    From function void Foam::wedgePolyPatch::calcGeometry(Foam::PstreamBuffers &)
    in file meshes/polyMesh/polyPatches/constraint/wedge/wedgePolyPatch.C at line 70
    Wedge patch 'right' is not planar.
At local face at (402.148 -23.6804 26.7871) the normal (5.37816e-07 -0.99875 0.0499802) differs from the average normal (1.58443e-08 -0.99875 0.0499792) by 1.32787e-12
Either correct the patch or split it into planar parts
--> FOAM Warning : 
    From function void Foam::wedgePolyPatch::calcGeometry(Foam::PstreamBuffers &)
    in file meshes/polyMesh/polyPatches/constraint/wedge/wedgePolyPatch.C at line 70
    Wedge patch 'right' is not planar.
At local face at (502.063 -23.9462 21.4756) the normal (1.1511e-06 -0.99875 0.0499789) differs from the average normal (1.58443e-08 -0.99875 0.0499792) by 1.41613e-12
Either correct the patch or split it into planar parts
--> FOAM Warning : 
    From function void Foam::wedgePolyPatch::calcGeometry(Foam::PstreamBuffers &)
    in file meshes/polyMesh/polyPatches/constraint/wedge/wedgePolyPatch.C at line 70
    Wedge patch 'right' is not planar.
At local face at (14.4338 -13.7443 225.344) the normal (-5.77125e-07 -0.99875 0.0499805) differs from the average normal (1.58443e-08 -0.99875 0.0499792) by 2.01543e-12
Either correct the patch or split it into planar parts
--> FOAM Warning : 
    From function void Foam::wedgePolyPatch::calcGeometry(Foam::PstreamBuffers &)
    in file meshes/polyMesh/polyPatches/constraint/wedge/wedgePolyPatch.C at line 70
    Wedge patch 'right' is not planar.
At local face at (983.744 -13.7819 224.593) the normal (6.47021e-07 -0.99875 0.0499786) differs from the average normal (1.58443e-08 -0.99875 0.0499792) by 8.02041e-13
Either correct the patch or split it into planar parts
--> FOAM Warning : 
    From function void Foam::wedgePolyPatch::calcGeometry(Foam::PstreamBuffers &)
    in file meshes/polyMesh/polyPatches/constraint/wedge/wedgePolyPatch.C at line 70
    Wedge patch 'right' is not planar.
At local face at (751.087 -23.8596 23.2053) the normal (9.56386e-07 -0.99875 0.0499793) differs from the average normal (1.58443e-08 -0.99875 0.0499792) by 8.8988e-13
Either correct the patch or split it into planar parts
--> FOAM Warning : 
    From function void Foam::wedgePolyPatch::calcGeometry(Foam::PstreamBuffers &)
    in file meshes/polyMesh/polyPatches/constraint/wedge/wedgePolyPatch.C at line 70
    Wedge patch 'right' is not planar.
At local face at (850.662 -22.519 49.9958) the normal (-9.66761e-07 -0.99875 0.0499794) differs from the average normal (1.58443e-08 -0.99875 0.0499792) by 9.89665e-13
Either correct the patch or split it into planar parts
--> FOAM Warning : 
    From function void Foam::wedgePolyPatch::calcGeometry(Foam::PstreamBuffers &)
    in file meshes/polyMesh/polyPatches/constraint/wedge/wedgePolyPatch.C at line 70
    Wedge patch 'right' is not planar.
At local face at (453.784 -23.7217 25.9616) the normal (-1.75793e-06 -0.99875 0.0499798) differs from the average normal (1.58443e-08 -0.99875 0.0499792) by 3.46053e-12
Either correct the patch or split it into planar parts
--> FOAM Warning : 
    From function void Foam::wedgePolyPatch::calcGeometry(Foam::PstreamBuffers &)
    in file meshes/polyMesh/polyPatches/constraint/wedge/wedgePolyPatch.C at line 70
    Wedge patch 'right' is not planar.
At local face at (827.266 -21.9441 61.4844) the normal (1.09419e-06 -0.99875 0.0499779) differs from the average normal (1.58443e-08 -0.99875 0.0499792) by 2.93673e-12
Either correct the patch or split it into planar parts
--> FOAM Warning : 
    From function void Foam::wedgePolyPatch::calcGeometry(Foam::PstreamBuffers &)
    in file meshes/polyMesh/polyPatches/constraint/wedge/wedgePolyPatch.C at line 70
    Wedge patch 'right' is not planar.
At local face at (701.094 -23.9798 20.8035) the normal (-3.20229e-07 -0.99875 0.0499788) differs from the average normal (1.58443e-08 -0.99875 0.0499792) by 2.82608e-13
Either correct the patch or split it into planar parts
--> FOAM Warning : 
    From function void Foam::wedgePolyPatch::calcGeometry(Foam::PstreamBuffers &)
    in file meshes/polyMesh/polyPatches/constraint/wedge/wedgePolyPatch.C at line 70
    Wedge patch 'right' is not planar.
At local face at (897.183 -22.3837 52.6986) the normal (1.45024e-06 -0.99875 0.0499773) differs from the average normal (1.58443e-08 -0.99875 0.0499792) by 5.61355e-12
Either correct the patch or split it into planar parts
--> FOAM Warning : 
    From function void Foam::wedgePolyPatch::calcGeometry(Foam::PstreamBuffers &)
    in file meshes/polyMesh/polyPatches/constraint/wedge/wedgePolyPatch.C at line 70
    Wedge patch 'right' is not planar.
At local face at (802.622 -22.5236 49.904) the normal (3.67984e-07 -0.99875 0.0499775) differs from the average normal (1.58443e-08 -0.99875 0.0499792) by 3.26442e-12
Either correct the patch or split it into planar parts
--> FOAM Warning : 
    From function void Foam::wedgePolyPatch::calcGeometry(Foam::PstreamBuffers &)
    in file meshes/polyMesh/polyPatches/constraint/wedge/wedgePolyPatch.C at line 70
    Wedge patch 'right' is not planar.
At local face at (459.165 -22.3308 53.756) the normal (-1.69713e-06 -0.99875 0.0499806) differs from the average normal (1.58443e-08 -0.99875 0.0499792) by 4.83636e-12
Either correct the patch or split it into planar parts
--> FOAM Warning : 
    From function void Foam::wedgePolyPatch::calcGeometry(Foam::PstreamBuffers &)
    in file meshes/polyMesh/polyPatches/constraint/wedge/wedgePolyPatch.C at line 70
    Wedge patch 'right' is not planar.
At local face at (154.379 -21.6871 66.6193) the normal (-4.7682e-07 -0.99875 0.0499795) differs from the average normal (1.58443e-08 -0.99875 0.0499792) by 3.43026e-13
Either correct the patch or split it into planar parts
--> FOAM Warning : 
    From function void Foam::wedgePolyPatch::calcGeometry(Foam::PstreamBuffers &)
    in file meshes/polyMesh/polyPatches/constraint/wedge/wedgePolyPatch.C at line 70
    Wedge patch 'right' is not planar.
At local face at (912.807 -21.443 71.4967) the normal (2.58021e-06 -0.99875 0.0499787) differs from the average normal (1.58443e-08 -0.99875 0.0499792) by 6.86782e-12
Either correct the patch or split it into planar parts
--> FOAM Warning : 
    From function void Foam::wedgePolyPatch::calcGeometry(Foam::PstreamBuffers &)
    in file meshes/polyMesh/polyPatches/constraint/wedge/wedgePolyPatch.C at line 70
    Wedge patch 'right' is not planar.
At local face at (873.113 -21.9511 61.3449) the normal (-1.49311e-06 -0.99875 0.049979) differs from the average normal (1.58443e-08 -0.99875 0.0499792) by 2.32112e-12
Either correct the patch or split it into planar parts
--> FOAM Warning : 
    From function void Foam::wedgePolyPatch::calcGeometry(Foam::PstreamBuffers &)
    in file meshes/polyMesh/polyPatches/constraint/wedge/wedgePolyPatch.C at line 70
    Wedge patch 'right' is not planar.
At local face at (973.141 -19.9702 100.928) the normal (-8.95288e-07 -0.99875 0.0499775) differs from the average normal (1.58443e-08 -0.99875 0.0499792) by 3.9045e-12
Either correct the patch or split it into planar parts
--> FOAM Warning : 
    From function void Foam::wedgePolyPatch::calcGeometry(Foam::PstreamBuffers &)
    in file meshes/polyMesh/polyPatches/constraint/wedge/wedgePolyPatch.C at line 70
    Wedge patch 'right' is not planar.
At local face at (704.5 -22.8325 43.7302) the normal (-3.20632e-07 -0.99875 0.0499802) differs from the average normal (1.58443e-08 -0.99875 0.0499792) by 1.02874e-12
Either correct the patch or split it into planar parts
--> FOAM Warning : 
    From function void Foam::wedgePolyPatch::calcGeometry(Foam::PstreamBuffers &)
    in file meshes/polyMesh/polyPatches/constraint/wedge/wedgePolyPatch.C at line 70
    Wedge patch 'right' is not planar.
At local face at (686.513 -22.191 56.5506) the normal (-4.88511e-08 -0.99875 0.0499799) differs from the average normal (1.58443e-08 -0.99875 0.0499792) by 5.29918e-13
Either correct the patch or split it into planar parts
--> FOAM Warning : 
    From function void Foam::wedgePolyPatch::calcGeometry(Foam::PstreamBuffers &)
    in file meshes/polyMesh/polyPatches/constraint/wedge/wedgePolyPatch.C at line 70
    Wedge patch 'right' is not planar.
At local face at (489.64 -21.9514 61.3387) the normal (-2.88036e-07 -0.99875 0.049981) differs from the average normal (1.58443e-08 -0.99875 0.0499792) by 3.43055e-12
Either correct the patch or split it into planar parts
--> FOAM Warning : 
    From function void Foam::wedgePolyPatch::calcGeometry(Foam::PstreamBuffers &)
    in file meshes/polyMesh/polyPatches/constraint/wedge/wedgePolyPatch.C at line 70
    Wedge patch 'right' is not planar.
At local face at (255.856 -22.6773 46.831) the normal (-2.60396e-07 -0.99875 0.0499795) differs from the average normal (1.58443e-08 -0.99875 0.0499792) by 1.32881e-13
Either correct the patch or split it into planar parts
--> FOAM Warning : 
    From function void Foam::wedgePolyPatch::calcGeometry(Foam::PstreamBuffers &)
    in file meshes/polyMesh/polyPatches/constraint/wedge/wedgePolyPatch.C at line 70
    Wedge patch 'right' is not planar.
At local face at (29.2269 -20.1226 97.8828) the normal (1.11551e-06 -0.99875 0.0499786) differs from the average normal (1.58443e-08 -0.99875 0.0499792) by 1.60579e-12
Either correct the patch or split it into planar parts
--> FOAM Warning : 
    From function void Foam::wedgePolyPatch::calcGeometry(Foam::PstreamBuffers &)
    in file meshes/polyMesh/polyPatches/constraint/wedge/wedgePolyPatch.C at line 70
    Wedge patch 'right' is not planar.
At local face at (599.25 -21.9013 62.3399) the normal (-5.78728e-07 -0.99875 0.0499799) differs from the average normal (1.58443e-08 -0.99875 0.0499792) by 8.77813e-13
Either correct the patch or split it into planar parts
--> FOAM Warning : 
    From function void Foam::wedgePolyPatch::calcGeometry(Foam::PstreamBuffers &)
    in file meshes/polyMesh/polyPatches/constraint/wedge/wedgePolyPatch.C at line 70
    Wedge patch 'right' is not planar.
At local face at (828.252 -20.8274 83.7988) the normal (1.10744e-06 -0.99875 0.0499787) differs from the average normal (1.58443e-08 -0.99875 0.0499792) by 1.47305e-12
Either correct the patch or split it into planar parts
--> FOAM Warning : 
    From function void Foam::wedgePolyPatch::calcGeometry(Foam::PstreamBuffers &)
    in file meshes/polyMesh/polyPatches/constraint/wedge/wedgePolyPatch.C at line 70
    Wedge patch 'right' is not planar.
At local face at (806.766 -19.0093 120.13) the normal (-1.14126e-06 -0.99875 0.0499786) differs from the average normal (1.58443e-08 -0.99875 0.0499792) by 1.68766e-12
Either correct the patch or split it into planar parts
--> FOAM Warning : 
    From function void Foam::wedgePolyPatch::calcGeometry(Foam::PstreamBuffers &)
    in file meshes/polyMesh/polyPatches/constraint/wedge/wedgePolyPatch.C at line 70
    Wedge patch 'right' is not planar.
At local face at (149.242 -23.7834 24.7291) the normal (-6.12105e-08 -0.99875 0.0499786) differs from the average normal (1.58443e-08 -0.99875 0.0499792) by 4.44226e-13
Either correct the patch or split it into planar parts
--> FOAM Warning : 
    From function void Foam::wedgePolyPatch::calcGeometry(Foam::PstreamBuffers &)
    in file meshes/polyMesh/polyPatches/constraint/wedge/wedgePolyPatch.C at line 70
    Wedge patch 'right' is not planar.
At local face at (599.43 -23.4333 31.725) the normal (-5.67338e-07 -0.99875 0.0499791) differs from the average normal (1.58443e-08 -0.99875 0.0499792) by 3.52218e-13
Either correct the patch or split it into planar parts
--> FOAM Warning : 
    From function void Foam::wedgePolyPatch::calcGeometry(Foam::PstreamBuffers &)
    in file meshes/polyMesh/polyPatches/constraint/wedge/wedgePolyPatch.C at line 70
    Wedge patch 'right' is not planar.
At local face at (760.501 -18.907 122.174) the normal (2.71861e-07 -0.99875 0.0499794) differs from the average normal (1.58443e-08 -0.99875 0.0499792) by 1.17227e-13
Either correct the patch or split it into planar parts
--> FOAM Warning : 
    From function void Foam::wedgePolyPatch::calcGeometry(Foam::PstreamBuffers &)
    in file meshes/polyMesh/polyPatches/constraint/wedge/wedgePolyPatch.C at line 70
    Wedge patch 'right' is not planar.
At local face at (216.719 -18.3783 132.741) the normal (-1.31249e-06 -0.99875 0.0499797) differs from the average normal (1.58443e-08 -0.99875 0.0499792) by 2.00134e-12
Either correct the patch or split it into planar parts
--> FOAM Warning : 
    From function void Foam::wedgePolyPatch::calcGeometry(Foam::PstreamBuffers &)
    in file meshes/polyMesh/polyPatches/constraint/wedge/wedgePolyPatch.C at line 70
    Wedge patch 'right' is not planar.
At local face at (405.034 -22.2937 54.497) the normal (5.59076e-07 -0.99875 0.0499794) differs from the average normal (1.58443e-08 -0.99875 0.0499792) by 3.18454e-13
Either correct the patch or split it into planar parts
--> FOAM Warning : 
    From function void Foam::wedgePolyPatch::calcGeometry(Foam::PstreamBuffers &)
    in file meshes/polyMesh/polyPatches/constraint/wedge/wedgePolyPatch.C at line 70
    Wedge patch 'right' is not planar.
At local face at (241.214 -20.4743 90.8556) the normal (9.22822e-07 -0.99875 0.0499783) differs from the average normal (1.58443e-08 -0.99875 0.0499792) by 1.68523e-12
Either correct the patch or split it into planar parts
--> FOAM Warning : 
    From function void Foam::wedgePolyPatch::calcGeometry(Foam::PstreamBuffers &)
    in file meshes/polyMesh/polyPatches/constraint/wedge/wedgePolyPatch.C at line 70
    Wedge patch 'right' is not planar.
At local face at (754.248 -22.5925 48.5273) the normal (9.00189e-07 -0.99875 0.0499797) differs from the average normal (1.58443e-08 -0.99875 0.0499792) by 1.00612e-12
Either correct the patch or split it into planar parts
--> FOAM Warning : 
    From function void Foam::wedgePolyPatch::calcGeometry(Foam::PstreamBuffers &)
    in file meshes/polyMesh/polyPatches/constraint/wedge/wedgePolyPatch.C at line 70
    Wedge patch 'right' is not planar.
At local face at (315.758 -18.1828 136.647) the normal (-8.2766e-07 -0.99875 0.0499779) differs from the average normal (1.58443e-08 -0.99875 0.0499792) by 2.43485e-12
Either correct the patch or split it into planar parts
--> FOAM Warning : 
    From function void Foam::wedgePolyPatch::calcGeometry(Foam::PstreamBuffers &)
    in file meshes/polyMesh/polyPatches/constraint/wedge/wedgePolyPatch.C at line 70
    Wedge patch 'right' is not planar.
At local face at (241.252 -17.6629 147.036) the normal (-1.61279e-06 -0.99875 0.0499795) differs from the average normal (1.58443e-08 -0.99875 0.0499792) by 2.74142e-12
Either correct the patch or split it into planar parts
--> FOAM Warning : 
    From function void Foam::wedgePolyPatch::calcGeometry(Foam::PstreamBuffers &)
    in file meshes/polyMesh/polyPatches/constraint/wedge/wedgePolyPatch.C at line 70
    Wedge patch 'right' is not planar.
At local face at (547.71 -23.7775 24.8471) the normal (-3.36554e-07 -0.99875 0.0499796) differs from the average normal (1.58443e-08 -0.99875 0.0499792) by 2.94262e-13
Either correct the patch or split it into planar parts
--> FOAM Warning : 
    From function void Foam::wedgePolyPatch::calcGeometry(Foam::PstreamBuffers &)
    in file meshes/polyMesh/polyPatches/constraint/wedge/wedgePolyPatch.C at line 70
    Wedge patch 'right' is not planar.
At local face at (339.67 -17.4379 151.533) the normal (2.35176e-07 -0.99875 0.0499786) differs from the average normal (1.58443e-08 -0.99875 0.0499792) by 4.34535e-13
Either correct the patch or split it into planar parts
--> FOAM Warning : 
    From function void Foam::wedgePolyPatch::calcGeometry(Foam::PstreamBuffers &)
    in file meshes/polyMesh/polyPatches/constraint/wedge/wedgePolyPatch.C at line 70
    Wedge patch 'right' is not planar.
At local face at (352.844 -22.2166 56.0388) the normal (-5.51371e-07 -0.99875 0.0499781) differs from the average normal (1.58443e-08 -0.99875 0.0499792) by 1.57618e-12
Either correct the patch or split it into planar parts
--> FOAM Warning : 
    From function void Foam::wedgePolyPatch::calcGeometry(Foam::PstreamBuffers &)
    in file meshes/polyMesh/polyPatches/constraint/wedge/wedgePolyPatch.C at line 70
    Wedge patch 'right' is not planar.
At local face at (364.619 -18.0918 138.465) the normal (1.3265e-07 -0.99875 0.0499787) differs from the average normal (1.58443e-08 -0.99875 0.0499792) by 3.35473e-13
Either correct the patch or split it into planar parts
--> FOAM Warning : 
    From function void Foam::wedgePolyPatch::calcGeometry(Foam::PstreamBuffers &)
    in file meshes/polyMesh/polyPatches/constraint/wedge/wedgePolyPatch.C at line 70
    Wedge patch 'right' is not planar.
At local face at (92.4327 -21.7282 65.7976) the normal (-5.30508e-07 -0.99875 0.0499814) differs from the average normal (1.58443e-08 -0.99875 0.0499792) by 5.11026e-12
Either correct the patch or split it into planar parts
--> FOAM Warning : 
    From function void Foam::wedgePolyPatch::calcGeometry(Foam::PstreamBuffers &)
    in file meshes/polyMesh/polyPatches/constraint/wedge/wedgePolyPatch.C at line 70
    Wedge patch 'right' is not planar.
At local face at (713.109 -18.9177 121.962) the normal (1.73589e-07 -0.99875 0.0499797) differs from the average normal (1.58443e-08 -0.99875 0.0499792) by 2.41641e-13
Either correct the patch or split it into planar parts
--> FOAM Warning : 
    From function void Foam::wedgePolyPatch::calcGeometry(Foam::PstreamBuffers &)
    in file meshes/polyMesh/polyPatches/constraint/wedge/wedgePolyPatch.C at line 70
    Wedge patch 'right' is not planar.
At local face at (805.432 -20.2319 95.6995) the normal (-1.00857e-06 -0.99875 0.0499803) differs from the average normal (1.58443e-08 -0.99875 0.0499792) by 2.31447e-12
Either correct the patch or split it into planar parts
--> FOAM Warning : 
    From function void Foam::wedgePolyPatch::calcGeometry(Foam::PstreamBuffers &)
    in file meshes/polyMesh/polyPatches/constraint/wedge/wedgePolyPatch.C at line 70
    Wedge patch 'right' is not planar.
At local face at (552.195 -17.4773 150.746) the normal (-2.29845e-08 -0.99875 0.0499797) differs from the average normal (1.58443e-08 -0.99875 0.0499792) by 2.10069e-13
Either correct the patch or split it into planar parts
--> FOAM Warning : 
    From function void Foam::wedgePolyPatch::calcGeometry(Foam::PstreamBuffers &)
    in file meshes/polyMesh/polyPatches/constraint/wedge/wedgePolyPatch.C at line 70
    Wedge patch 'right' is not planar.
At local face at (266.451 -18.3069 134.168) the normal (1.44132e-06 -0.99875 0.0499779) differs from the average normal (1.58443e-08 -0.99875 0.0499792) by 3.74781e-12
Either correct the patch or split it into planar parts
--> FOAM Warning : 
    From function void Foam::wedgePolyPatch::calcGeometry(Foam::PstreamBuffers &)
    in file meshes/polyMesh/polyPatches/constraint/wedge/wedgePolyPatch.C at line 70
    Wedge patch 'right' is not planar.
At local face at (572.762 -21.092 78.511) the normal (1.02125e-06 -0.99875 0.0499788) differs from the average normal (1.58443e-08 -0.99875 0.0499792) by 1.15036e-12
Either correct the patch or split it into planar parts
--> FOAM Warning : 
    From function void Foam::wedgePolyPatch::calcGeometry(Foam::PstreamBuffers &)
    in file meshes/polyMesh/polyPatches/constraint/wedge/wedgePolyPatch.C at line 70
    Wedge patch 'right' is not planar.
At local face at (190.891 -16.3334 173.603) the normal (-5.61374e-07 -0.99875 0.0499791) differs from the average normal (1.58443e-08 -0.99875 0.0499792) by 3.4721e-13
Either correct the patch or split it into planar parts
--> FOAM Warning : 
    From function void Foam::wedgePolyPatch::calcGeometry(Foam::PstreamBuffers &)
    in file meshes/polyMesh/polyPatches/constraint/wedge/wedgePolyPatch.C at line 70
    Wedge patch 'right' is not planar.
At local face at (387.914 -17.3329 153.632) the normal (1.47906e-06 -0.99875 0.0499795) differs from the average normal (1.58443e-08 -0.99875 0.0499792) by 2.22079e-12
Either correct the patch or split it into planar parts
--> FOAM Warning : 
    From function void Foam::wedgePolyPatch::calcGeometry(Foam::PstreamBuffers &)
    in file meshes/polyMesh/polyPatches/constraint/wedge/wedgePolyPatch.C at line 70
    Wedge patch 'right' is not planar.
At local face at (731.885 -22.0701 58.9653) the normal (3.97389e-08 -0.99875 0.0499803) differs from the average normal (1.58443e-08 -0.99875 0.0499792) by 1.21928e-12
Either correct the patch or split it into planar parts
--> FOAM Warning : 
    From function void Foam::wedgePolyPatch::calcGeometry(Foam::PstreamBuffers &)
    in file meshes/polyMesh/polyPatches/constraint/wedge/wedgePolyPatch.C at line 70
    Wedge patch 'right' is not planar.
At local face at (528.416 -16.8207 163.867) the normal (1.3774e-06 -0.99875 0.0499789) differs from the average normal (1.58443e-08 -0.99875 0.0499792) by 1.93812e-12
Either correct the patch or split it into planar parts
--> FOAM Warning : 
    From function void Foam::wedgePolyPatch::calcGeometry(Foam::PstreamBuffers &)
    in file meshes/polyMesh/polyPatches/constraint/wedge/wedgePolyPatch.C at line 70
    Wedge patch 'right' is not planar.
At local face at (935.316 -21.3636 73.0834) the normal (4.97845e-07 -0.99875 0.0499786) differs from the average normal (1.58443e-08 -0.99875 0.0499792) by 6.18756e-13
Either correct the patch or split it into planar parts
--> FOAM Warning : 
    From function void Foam::wedgePolyPatch::calcGeometry(Foam::PstreamBuffers &)
    in file meshes/polyMesh/polyPatches/constraint/wedge/wedgePolyPatch.C at line 70
    Wedge patch 'right' is not planar.
At local face at (240.182 -16.2414 175.442) the normal (-1.62228e-06 -0.99875 0.0499798) differs from the average normal (1.58443e-08 -0.99875 0.0499792) by 2.98074e-12
Either correct the patch or split it into planar parts
--> FOAM Warning : 
    From function void Foam::wedgePolyPatch::calcGeometry(Foam::PstreamBuffers &)
    in file meshes/polyMesh/polyPatches/constraint/wedge/wedgePolyPatch.C at line 70
    Wedge patch 'right' is not planar.
At local face at (552.072 -18.8413 123.488) the normal (-9.19135e-09 -0.99875 0.0499802) differs from the average normal (1.58443e-08 -0.99875 0.0499792) by 1.01752e-12
Either correct the patch or split it into planar parts
--> FOAM Warning : 
    From function void Foam::wedgePolyPatch::calcGeometry(Foam::PstreamBuffers &)
    in file meshes/polyMesh/polyPatches/constraint/wedge/wedgePolyPatch.C at line 70
    Wedge patch 'right' is not planar.
At local face at (289.367 -16.1422 177.427) the normal (3.05675e-07 -0.99875 0.0499797) differs from the average normal (1.58443e-08 -0.99875 0.0499792) by 3.5251e-13
Either correct the patch or split it into planar parts
--> FOAM Warning : 
    From function void Foam::wedgePolyPatch::calcGeometry(Foam::PstreamBuffers &)
    in file meshes/polyMesh/polyPatches/constraint/wedge/wedgePolyPatch.C at line 70
    Wedge patch 'right' is not planar.
At local face at (121.086 -19.949 101.352) the normal (4.87521e-07 -0.99875 0.0499791) differs from the average normal (1.58443e-08 -0.99875 0.0499792) by 2.39837e-13
Either correct the patch or split it into planar parts
--> FOAM Warning : 
    From function void Foam::wedgePolyPatch::calcGeometry(Foam::PstreamBuffers &)
    in file meshes/polyMesh/polyPatches/constraint/wedge/wedgePolyPatch.C at line 70
    Wedge patch 'right' is not planar.
At local face at (575.376 -19.5959 108.409) the normal (1.07529e-06 -0.99875 0.0499796) differs from the average normal (1.58443e-08 -0.99875 0.0499792) by 1.23116e-12
Either correct the patch or split it into planar parts
--> FOAM Warning : 
    From function void Foam::wedgePolyPatch::calcGeometry(Foam::PstreamBuffers &)
    in file meshes/polyMesh/polyPatches/constraint/wedge/wedgePolyPatch.C at line 70
    Wedge patch 'right' is not planar.
At local face at (762.704 -3.46183 430.821) the normal (1.40651e-06 -0.99875 0.0499808) differs from the average normal (1.58443e-08 -0.99875 0.0499792) by 4.41525e-12
Either correct the patch or split it into planar parts
--> FOAM Warning : 
    From function void Foam::wedgePolyPatch::calcGeometry(Foam::PstreamBuffers &)
    in file meshes/polyMesh/polyPatches/constraint/wedge/wedgePolyPatch.C at line 70
    Wedge patch 'right' is not planar.
At local face at (167.409 -18.4455 131.396) the normal (5.03125e-07 -0.99875 0.04998) differs from the average normal (1.58443e-08 -0.99875 0.0499792) by 7.70165e-13
Either correct the patch or split it into planar parts
--> FOAM Warning : 
    From function void Foam::wedgePolyPatch::calcGeometry(Foam::PstreamBuffers &)
    in file meshes/polyMesh/polyPatches/constraint/wedge/wedgePolyPatch.C at line 70
    Wedge patch 'right' is not planar.
At local face at (55.0847 -20.4237 91.8667) the normal (5.78698e-07 -0.99875 0.0499787) differs from the average normal (1.58443e-08 -0.99875 0.0499792) by 6.15379e-13
Either correct the patch or split it into planar parts
--> FOAM Warning : 
    From function void Foam::wedgePolyPatch::calcGeometry(Foam::PstreamBuffers &)
    in file meshes/polyMesh/polyPatches/constraint/wedge/wedgePolyPatch.C at line 70
    Wedge patch 'right' is not planar.
At local face at (184.392 -21.5787 68.7857) the normal (-1.3856e-07 -0.99875 0.0499796) differs from the average normal (1.58443e-08 -0.99875 0.0499792) by 1.46362e-13
Either correct the patch or split it into planar parts
--> FOAM Warning : 
    From function void Foam::wedgePolyPatch::calcGeometry(Foam::PstreamBuffers &)
    in file meshes/polyMesh/polyPatches/constraint/wedge/wedgePolyPatch.C at line 70
    Wedge patch 'right' is not planar.
At local face at (434.988 -21.5465 69.4283) the normal (7.69172e-08 -0.99875 0.0499791) differs from the average normal (1.58443e-08 -0.99875 0.0499792) by 1.12585e-14
Either correct the patch or split it into planar parts
--> FOAM Warning : 
    From function void Foam::wedgePolyPatch::calcGeometry(Foam::PstreamBuffers &)
    in file meshes/polyMesh/polyPatches/constraint/wedge/wedgePolyPatch.C at line 70
    Wedge patch 'right' is not planar.
At local face at (139.898 -22.5936 48.5058) the normal (-3.38817e-07 -0.99875 0.0499798) differs from the average normal (1.58443e-08 -0.99875 0.0499792) by 4.30582e-13
Either correct the patch or split it into planar parts
--> FOAM Warning : 
    From function void Foam::wedgePolyPatch::calcGeometry(Foam::PstreamBuffers &)
    in file meshes/polyMesh/polyPatches/constraint/wedge/wedgePolyPatch.C at line 70
    Wedge patch 'right' is not planar.
At local face at (689.279 -18.3981 132.344) the normal (2.422e-07 -0.99875 0.0499797) differs from the average normal (1.58443e-08 -0.99875 0.0499792) by 2.41913e-13
Either correct the patch or split it into planar parts
--> FOAM Warning : 
    From function void Foam::wedgePolyPatch::calcGeometry(Foam::PstreamBuffers &)
    in file meshes/polyMesh/polyPatches/constraint/wedge/wedgePolyPatch.C at line 70
    Wedge patch 'right' is not planar.
At local face at (736.709 -18.1892 136.519) the normal (3.97545e-08 -0.99875 0.0499796) differs from the average normal (1.58443e-08 -0.99875 0.0499792) by 1.48739e-13
Either correct the patch or split it into planar parts
--> FOAM Warning : 
    From function void Foam::wedgePolyPatch::calcGeometry(Foam::PstreamBuffers &)
    in file meshes/polyMesh/polyPatches/constraint/wedge/wedgePolyPatch.C at line 70
    Wedge patch 'right' is not planar.
At local face at (436.909 -20.0632 99.0708) the normal (8.52755e-08 -0.99875 0.0499772) differs from the average normal (1.58443e-08 -0.99875 0.0499792) by 3.91868e-12
Either correct the patch or split it into planar parts
--> FOAM Warning : 
    From function void Foam::wedgePolyPatch::calcGeometry(Foam::PstreamBuffers &)
    in file meshes/polyMesh/polyPatches/constraint/wedge/wedgePolyPatch.C at line 70
    Wedge patch 'right' is not planar.
At local face at (65.1211 -21.7265 65.8327) the normal (-1.81103e-07 -0.99875 0.0499814) differs from the average normal (1.58443e-08 -0.99875 0.0499792) by 4.8577e-12
Either correct the patch or split it into planar parts
--> FOAM Warning : 
    From function void Foam::wedgePolyPatch::calcGeometry(Foam::PstreamBuffers &)
    in file meshes/polyMesh/polyPatches/constraint/wedge/wedgePolyPatch.C at line 70
    Wedge patch 'right' is not planar.
At local face at (338.277 -16.0395 179.479) the normal (1.81265e-07 -0.99875 0.0499798) differs from the average normal (1.58443e-08 -0.99875 0.0499792) by 3.84081e-13
Either correct the patch or split it into planar parts
--> FOAM Warning : 
    From function void Foam::wedgePolyPatch::calcGeometry(Foam::PstreamBuffers &)
    in file meshes/polyMesh/polyPatches/constraint/wedge/wedgePolyPatch.C at line 70
    Wedge patch 'right' is not planar.
At local face at (215.363 -19.7441 105.447) the normal (-1.30825e-06 -0.99875 0.04998) differs from the average normal (1.58443e-08 -0.99875 0.0499792) by 2.32522e-12
Either correct the patch or split it into planar parts
--> FOAM Warning : 
    From function void Foam::wedgePolyPatch::calcGeometry(Foam::PstreamBuffers &)
    in file meshes/polyMesh/polyPatches/constraint/wedge/wedgePolyPatch.C at line 70
    Wedge patch 'right' is not planar.
At local face at (784.505 -18.292 134.465) the normal (-1.2114e-06 -0.99875 0.0499787) differs from the average normal (1.58443e-08 -0.99875 0.0499792) by 1.80168e-12
Either correct the patch or split it into planar parts
--> FOAM Warning : 
    From function void Foam::wedgePolyPatch::calcGeometry(Foam::PstreamBuffers &)
    in file meshes/polyMesh/polyPatches/constraint/wedge/wedgePolyPatch.C at line 70
    Wedge patch 'right' is not planar.
At local face at (527.268 -15.4906 190.446) the normal (1.37958e-06 -0.99875 0.0499789) differs from the average normal (1.58443e-08 -0.99875 0.0499792) by 1.97486e-12
Either correct the patch or split it into planar parts
--> FOAM Warning : 
    From function void Foam::wedgePolyPatch::calcGeometry(Foam::PstreamBuffers &)
    in file meshes/polyMesh/polyPatches/constraint/wedge/wedgePolyPatch.C at line 70
    Wedge patch 'right' is not planar.
At local face at (267.769 -19.7524 105.281) the normal (1.39747e-06 -0.99875 0.0499786) differs from the average normal (1.58443e-08 -0.99875 0.0499792) by 2.30727e-12
Either correct the patch or split it into planar parts
--> FOAM Warning : 
    From function void Foam::wedgePolyPatch::calcGeometry(Foam::PstreamBuffers &)
    in file meshes/polyMesh/polyPatches/constraint/wedge/wedgePolyPatch.C at line 70
    Wedge patch 'right' is not planar.
At local face at (290.574 -17.5448 149.398) the normal (4.0751e-07 -0.99875 0.0499772) differs from the average normal (1.58443e-08 -0.99875 0.0499792) by 4.07745e-12
Either correct the patch or split it into planar parts
--> FOAM Warning : 
    From function void Foam::wedgePolyPatch::calcGeometry(Foam::PstreamBuffers &)
    in file meshes/polyMesh/polyPatches/constraint/wedge/wedgePolyPatch.C at line 70
    Wedge patch 'right' is not planar.
At local face at (144.723 -20.4503 91.3358) the normal (-4.85117e-07 -0.99875 0.0499796) differs from the average normal (1.58443e-08 -0.99875 0.0499792) by 3.69845e-13
Either correct the patch or split it into planar parts
--> FOAM Warning : 
    From function void Foam::wedgePolyPatch::calcGeometry(Foam::PstreamBuffers &)
    in file meshes/polyMesh/polyPatches/constraint/wedge/wedgePolyPatch.C at line 70
    Wedge patch 'right' is not planar.
At local face at (930.588 -18.8759 122.796) the normal (-4.95977e-07 -0.99875 0.0499781) differs from the average normal (1.58443e-08 -0.99875 0.0499792) by 1.52516e-12
Either correct the patch or split it into planar parts
--> FOAM Warning : 
    From function void Foam::wedgePolyPatch::calcGeometry(Foam::PstreamBuffers &)
    in file meshes/polyMesh/polyPatches/constraint/wedge/wedgePolyPatch.C at line 70
    Wedge patch 'right' is not planar.
At local face at (215.025 -15.5779 188.702) the normal (-4.73641e-07 -0.99875 0.0499792) differs from the average normal (1.58443e-08 -0.99875 0.0499792) by 2.43613e-13
Either correct the patch or split it into planar parts
--> FOAM Warning : 
    From function void Foam::wedgePolyPatch::calcGeometry(Foam::PstreamBuffers &)
    in file meshes/polyMesh/polyPatches/constraint/wedge/wedgePolyPatch.C at line 70
    Wedge patch 'right' is not planar.
At local face at (831.572 -18.3924 132.459) the normal (1.19369e-06 -0.99875 0.0499798) differs from the average normal (1.58443e-08 -0.99875 0.0499792) by 1.69276e-12
Either correct the patch or split it into planar parts
--> FOAM Warning : 
    From function void Foam::wedgePolyPatch::calcGeometry(Foam::PstreamBuffers &)
    in file meshes/polyMesh/polyPatches/constraint/wedge/wedgePolyPatch.C at line 70
    Wedge patch 'right' is not planar.
At local face at (191.514 -17.7123 146.048) the normal (-5.67577e-07 -0.99875 0.0499793) differs from the average normal (1.58443e-08 -0.99875 0.0499792) by 3.42437e-13
Either correct the patch or split it into planar parts
--> FOAM Warning : 
    From function void Foam::wedgePolyPatch::calcGeometry(Foam::PstreamBuffers &)
    in file meshes/polyMesh/polyPatches/constraint/wedge/wedgePolyPatch.C at line 70
    Wedge patch 'right' is not planar.
At local face at (381.736 -21.5762 68.8348) the normal (1.36175e-06 -0.99875 0.0499788) differs from the average normal (1.58443e-08 -0.99875 0.0499792) by 1.99629e-12
Either correct the patch or split it into planar parts
--> FOAM Warning : 
    From function void Foam::wedgePolyPatch::calcGeometry(Foam::PstreamBuffers &)
    in file meshes/polyMesh/polyPatches/constraint/wedge/wedgePolyPatch.C at line 70
    Wedge patch 'right' is not planar.
At local face at (503.41 -14.8662 202.923) the normal (-7.77946e-07 -0.99875 0.04998) differs from the average normal (1.58443e-08 -0.99875 0.0499792) by 1.23041e-12
Either correct the patch or split it into planar parts
--> FOAM Warning : 
    From function void Foam::wedgePolyPatch::calcGeometry(Foam::PstreamBuffers &)
    in file meshes/polyMesh/polyPatches/constraint/wedge/wedgePolyPatch.C at line 70
    Wedge patch 'right' is not planar.
At local face at (985.871 -16.2933 174.405) the normal (9.37089e-07 -0.99875 0.0499786) differs from the average normal (1.58443e-08 -0.99875 0.0499792) by 1.25235e-12
Either correct the patch or split it into planar parts
--> FOAM Warning : 
    From function void Foam::wedgePolyPatch::calcGeometry(Foam::PstreamBuffers &)
    in file meshes/polyMesh/polyPatches/constraint/wedge/wedgePolyPatch.C at line 70
    Wedge patch 'right' is not planar.
At local face at (946.988 -20.0501 99.3321) the normal (-1.86608e-08 -0.99875 0.0499775) differs from the average normal (1.58443e-08 -0.99875 0.0499792) by 2.92036e-12
Either correct the patch or split it into planar parts
--> FOAM Warning : 
    From function void Foam::wedgePolyPatch::calcGeometry(Foam::PstreamBuffers &)
    in file meshes/polyMesh/polyPatches/constraint/wedge/wedgePolyPatch.C at line 70
    Wedge patch 'right' is not planar.
At local face at (264.174 -15.4828 190.603) the normal (-7.74704e-07 -0.99875 0.0499803) differs from the average normal (1.58443e-08 -0.99875 0.0499792) by 1.79133e-12
Either correct the patch or split it into planar parts
--> FOAM Warning : 
    From function void Foam::wedgePolyPatch::calcGeometry(Foam::PstreamBuffers &)
    in file meshes/polyMesh/polyPatches/constraint/wedge/wedgePolyPatch.C at line 70
    Wedge patch 'right' is not planar.
At local face at (288.182 -22.4834 50.7057) the normal (4.80551e-07 -0.99875 0.0499795) differs from the average normal (1.58443e-08 -0.99875 0.0499792) by 3.08185e-13
Either correct the patch or split it into planar parts
--> FOAM Warning : 
    From function void Foam::wedgePolyPatch::calcGeometry(Foam::PstreamBuffers &)
    in file meshes/polyMesh/polyPatches/constraint/wedge/wedgePolyPatch.C at line 70
    Wedge patch 'right' is not planar.
At local face at (509.259 -22.9012 42.3574) the normal (1.15033e-06 -0.99875 0.0499789) differs from the average normal (1.58443e-08 -0.99875 0.0499792) by 1.41689e-12
Either correct the patch or split it into planar parts
--> FOAM Warning : 
    From function void Foam::wedgePolyPatch::calcGeometry(Foam::PstreamBuffers &)
    in file meshes/polyMesh/polyPatches/constraint/wedge/wedgePolyPatch.C at line 70
    Wedge patch 'right' is not planar.
At local face at (363.573 -19.4738 110.848) the normal (1.15785e-07 -0.99875 0.0499794) differs from the average normal (1.58443e-08 -0.99875 0.0499792) by 5.31331e-14
Either correct the patch or split it into planar parts
--> FOAM Warning : 
    From function void Foam::wedgePolyPatch::calcGeometry(Foam::PstreamBuffers &)
    in file meshes/polyMesh/polyPatches/constraint/wedge/wedgePolyPatch.C at line 70
    Wedge patch 'right' is not planar.
At local face at (298.413 -23.7335 25.7254) the normal (2.84631e-07 -0.99875 0.0499802) differs from the average normal (1.58443e-08 -0.99875 0.0499792) by 1.02473e-12
Either correct the patch or split it into planar parts
--> FOAM Warning : 
    From function void Foam::wedgePolyPatch::calcGeometry(Foam::PstreamBuffers &)
    in file meshes/polyMesh/polyPatches/constraint/wedge/wedgePolyPatch.C at line 70
    Wedge patch 'right' is not planar.
At local face at (386.265 -15.9088 182.089) the normal (1.5281e-06 -0.99875 0.0499788) differs from the average normal (1.58443e-08 -0.99875 0.0499792) by 2.50679e-12
Either correct the patch or split it into planar parts
--> FOAM Warning : 
    From function void Foam::wedgePolyPatch::calcGeometry(Foam::PstreamBuffers &)
    in file meshes/polyMesh/polyPatches/constraint/wedge/wedgePolyPatch.C at line 70
    Wedge patch 'right' is not planar.
At local face at (108.242 -22.581 48.7577) the normal (5.05163e-07 -0.99875 0.0499798) differs from the average normal (1.58443e-08 -0.99875 0.0499792) by 6.17679e-13
Either correct the patch or split it into planar parts
--> FOAM Warning : 
    From function void Foam::wedgePolyPatch::calcGeometry(Foam::PstreamBuffers &)
    in file meshes/polyMesh/polyPatches/constraint/wedge/wedgePolyPatch.C at line 70
    Wedge patch 'right' is not planar.
At local face at (25.5449 -22.3552 53.2682) the normal (-1.28908e-07 -0.99875 0.0499793) differs from the average normal (1.58443e-08 -0.99875 0.0499792) by 3.31695e-14
Either correct the patch or split it into planar parts
--> FOAM Warning : 
    From function void Foam::wedgePolyPatch::calcGeometry(Foam::PstreamBuffers &)
    in file meshes/polyMesh/polyPatches/constraint/wedge/wedgePolyPatch.C at line 70
    Wedge patch 'right' is not planar.
At local face at (313.157 -15.3817 192.622) the normal (3.19875e-07 -0.99875 0.0499797) differs from the average normal (1.58443e-08 -0.99875 0.0499792) by 3.70444e-13
Either correct the patch or split it into planar parts
--> FOAM Warning : 
    From function void Foam::wedgePolyPatch::calcGeometry(Foam::PstreamBuffers &)
    in file meshes/polyMesh/polyPatches/constraint/wedge/wedgePolyPatch.C at line 70
    Wedge patch 'right' is not planar.
At local face at (712.714 -20.2882 94.5733) the normal (2.41385e-07 -0.99875 0.0499792) differs from the average normal (1.58443e-08 -0.99875 0.0499792) by 5.52053e-14
Either correct the patch or split it into planar parts
--> FOAM Warning : 
    From function void Foam::wedgePolyPatch::calcGeometry(Foam::PstreamBuffers &)
    in file meshes/polyMesh/polyPatches/constraint/wedge/wedgePolyPatch.C at line 70
    Wedge patch 'right' is not planar.
At local face at (786.345 -16.9663 160.957) the normal (-1.19388e-06 -0.99875 0.0499794) differs from the average normal (1.58443e-08 -0.99875 0.0499792) by 1.50971e-12
Either correct the patch or split it into planar parts
--> FOAM Warning : 
    From function void Foam::wedgePolyPatch::calcGeometry(Foam::PstreamBuffers &)
    in file meshes/polyMesh/polyPatches/constraint/wedge/wedgePolyPatch.C at line 70
    Wedge patch 'right' is not planar.
At local face at (480.794 -15.5938 188.383) the normal (-8.3348e-07 -0.99875 0.04998) differs from the average normal (1.58443e-08 -0.99875 0.0499792) by 1.2682e-12
Either correct the patch or split it into planar parts
--> FOAM Warning : 
    From function void Foam::wedgePolyPatch::calcGeometry(Foam::PstreamBuffers &)
    in file meshes/polyMesh/polyPatches/constraint/wedge/wedgePolyPatch.C at line 70
    Wedge patch 'right' is not planar.
At local face at (719.225 -16.0299 179.668) the normal (-9.5467e-07 -0.99875 0.0499787) differs from the average normal (1.58443e-08 -0.99875 0.0499792) by 1.26213e-12
Either correct the patch or split it into planar parts
--> FOAM Warning : 
    From function void Foam::wedgePolyPatch::calcGeometry(Foam::PstreamBuffers &)
    in file meshes/polyMesh/polyPatches/constraint/wedge/wedgePolyPatch.C at line 70
    Wedge patch 'right' is not planar.
At local face at (302.706 -21.5018 70.3224) the normal (4.5958e-07 -0.99875 0.0499795) differs from the average normal (1.58443e-08 -0.99875 0.0499792) by 2.6828e-13
Either correct the patch or split it into planar parts
--> FOAM Warning : 
    From function void Foam::wedgePolyPatch::calcGeometry(Foam::PstreamBuffers &)
    in file meshes/polyMesh/polyPatches/constraint/wedge/wedgePolyPatch.C at line 70
    Wedge patch 'right' is not planar.
At local face at (361.577 -15.2693 194.869) the normal (-1.91417e-07 -0.99875 0.0499796) differs from the average normal (1.58443e-08 -0.99875 0.0499792) by 1.70774e-13
Either correct the patch or split it into planar parts
--> FOAM Warning : 
    From function void Foam::wedgePolyPatch::calcGeometry(Foam::PstreamBuffers &)
    in file meshes/polyMesh/polyPatches/constraint/wedge/wedgePolyPatch.C at line 70
    Wedge patch 'right' is not planar.
At local face at (833.141 -17.0503 159.279) the normal (1.18634e-06 -0.99875 0.0499795) differs from the average normal (1.58443e-08 -0.99875 0.0499792) by 1.45583e-12
Either correct the patch or split it into planar parts
--> FOAM Warning : 
    From function void Foam::wedgePolyPatch::calcGeometry(Foam::PstreamBuffers &)
    in file meshes/polyMesh/polyPatches/constraint/wedge/wedgePolyPatch.C at line 70
    Wedge patch 'right' is not planar.
At local face at (873.96 -20.8658 83.033) the normal (-1.50148e-06 -0.99875 0.0499786) differs from the average normal (1.58443e-08 -0.99875 0.0499792) by 2.75003e-12
Either correct the patch or split it into planar parts
--> FOAM Warning : 
    From function void Foam::wedgePolyPatch::calcGeometry(Foam::PstreamBuffers &)
    in file meshes/polyMesh/polyPatches/constraint/wedge/wedgePolyPatch.C at line 70
    Wedge patch 'right' is not planar.
At local face at (857.526 -15.1124 198.005) the normal (-8.56067e-07 -0.99875 0.0499775) differs from the average normal (1.58443e-08 -0.99875 0.0499792) by 3.7807e-12
Either correct the patch or split it into planar parts
--> FOAM Warning : 
    From function void Foam::wedgePolyPatch::calcGeometry(Foam::PstreamBuffers &)
    in file meshes/polyMesh/polyPatches/constraint/wedge/wedgePolyPatch.C at line 70
    Wedge patch 'right' is not planar.
At local face at (574.147 -16.7966 164.347) the normal (-1.61584e-06 -0.99875 0.0499787) differs from the average normal (1.58443e-08 -0.99875 0.0499792) by 2.91188e-12
Either correct the patch or split it into planar parts
--> FOAM Warning : 
    From function void Foam::wedgePolyPatch::calcGeometry(Foam::PstreamBuffers &)
    in file meshes/polyMesh/polyPatches/constraint/wedge/wedgePolyPatch.C at line 70
    Wedge patch 'right' is not planar.
At local face at (810.174 -16.3415 173.442) the normal (2.35362e-07 -0.99875 0.0499801) differs from the average normal (1.58443e-08 -0.99875 0.0499792) by 8.86874e-13
Either correct the patch or split it into planar parts
--> FOAM Warning : 
    From function void Foam::wedgePolyPatch::calcGeometry(Foam::PstreamBuffers &)
    in file meshes/polyMesh/polyPatches/constraint/wedge/wedgePolyPatch.C at line 70
    Wedge patch 'right' is not planar.
At local face at (14.4326 -16.2431 175.408) the normal (1.1478e-06 -0.99875 0.0499775) differs from the average normal (1.58443e-08 -0.99875 0.0499792) by 4.19583e-12
Either correct the patch or split it into planar parts
--> FOAM Warning : 
    From function void Foam::wedgePolyPatch::calcGeometry(Foam::PstreamBuffers &)
    in file meshes/polyMesh/polyPatches/constraint/wedge/wedgePolyPatch.C at line 70
    Wedge patch 'right' is not planar.
At local face at (625.316 -21.0035 80.2795) the normal (-4.13144e-07 -0.99875 0.0499801) differs from the average normal (1.58443e-08 -0.99875 0.0499792) by 8.85396e-13
Either correct the patch or split it into planar parts
--> FOAM Warning : 
    From function void Foam::wedgePolyPatch::calcGeometry(Foam::PstreamBuffers &)
    in file meshes/polyMesh/polyPatches/constraint/wedge/wedgePolyPatch.C at line 70
    Wedge patch 'right' is not planar.
At local face at (739.347 -16.8355 163.57) the normal (-7.94541e-08 -0.99875 0.0499779) differs from the average normal (1.58443e-08 -0.99875 0.0499792) by 1.68281e-12
Either correct the patch or split it into planar parts
--> FOAM Warning : 
    From function void Foam::wedgePolyPatch::calcGeometry(Foam::PstreamBuffers &)
    in file meshes/polyMesh/polyPatches/constraint/wedge/wedgePolyPatch.C at line 70
    Wedge patch 'right' is not planar.
At local face at (235.439 -21.8889 62.5875) the normal (9.18732e-07 -0.99875 0.0499782) differs from the average normal (1.58443e-08 -0.99875 0.0499792) by 1.8349e-12
Either correct the patch or split it into planar parts
--> FOAM Warning : 
    From function void Foam::wedgePolyPatch::calcGeometry(Foam::PstreamBuffers &)
    in file meshes/polyMesh/polyPatches/constraint/wedge/wedgePolyPatch.C at line 70
    Wedge patch 'right' is not planar.
At local face at (74.2505 -19.6954 106.42) the normal (-6.8186e-07 -0.99875 0.0499777) differs from the average normal (1.58443e-08 -0.99875 0.0499792) by 2.80185e-12
Either correct the patch or split it into planar parts
--> FOAM Warning : 
    From function void Foam::wedgePolyPatch::calcGeometry(Foam::PstreamBuffers &)
    in file meshes/polyMesh/polyPatches/constraint/wedge/wedgePolyPatch.C at line 70
    Wedge patch 'right' is not planar.
At local face at (499.294 -20.8442 83.4629) the normal (-1.49616e-06 -0.99875 0.0499778) differs from the average normal (1.58443e-08 -0.99875 0.0499792) by 4.24349e-12
Either correct the patch or split it into planar parts
--> FOAM Warning : 
    From function void Foam::wedgePolyPatch::calcGeometry(Foam::PstreamBuffers &)
    in file meshes/polyMesh/polyPatches/constraint/wedge/wedgePolyPatch.C at line 70
    Wedge patch 'right' is not planar.
At local face at (811.68 -15.0222 199.807) the normal (1.24307e-07 -0.99875 0.0499782) differs from the average normal (1.58443e-08 -0.99875 0.0499792) by 1.06745e-12
Either correct the patch or split it into planar parts
--> FOAM Warning : 
    From function void Foam::wedgePolyPatch::calcGeometry(Foam::PstreamBuffers &)
    in file meshes/polyMesh/polyPatches/constraint/wedge/wedgePolyPatch.C at line 70
    Wedge patch 'right' is not planar.
At local face at (143.137 -17.8385 143.527) the normal (-3.6529e-07 -0.99875 0.0499804) differs from the average normal (1.58443e-08 -0.99875 0.0499792) by 1.59209e-12
Either correct the patch or split it into planar parts
--> FOAM Warning : 
    From function void Foam::wedgePolyPatch::calcGeometry(Foam::PstreamBuffers &)
    in file meshes/polyMesh/polyPatches/constraint/wedge/wedgePolyPatch.C at line 70
    Wedge patch 'right' is not planar.
At local face at (598.931 -18.8997 122.322) the normal (-1.76779e-07 -0.99875 0.0499789) differs from the average normal (1.58443e-08 -0.99875 0.0499792) by 1.50502e-13
Either correct the patch or split it into planar parts
--> FOAM Warning : 
    From function void Foam::wedgePolyPatch::calcGeometry(Foam::PstreamBuffers &)
    in file meshes/polyMesh/polyPatches/constraint/wedge/wedgePolyPatch.C at line 70
    Wedge patch 'right' is not planar.
At local face at (834.885 -14.4316 211.609) the normal (-1.03912e-06 -0.99875 0.0499776) differs from the average normal (1.58443e-08 -0.99875 0.0499792) by 3.74278e-12
Either correct the patch or split it into planar parts
--> FOAM Warning : 
    From function void Foam::wedgePolyPatch::calcGeometry(Foam::PstreamBuffers &)
    in file meshes/polyMesh/polyPatches/constraint/wedge/wedgePolyPatch.C at line 70
    Wedge patch 'right' is not planar.
At local face at (780.423 -21.8801 62.7621) the normal (-1.26207e-06 -0.99875 0.0499787) differs from the average normal (1.58443e-08 -0.99875 0.0499792) by 1.91017e-12
Either correct the patch or split it into planar parts
--> FOAM Warning : 
    From function void Foam::wedgePolyPatch::calcGeometry(Foam::PstreamBuffers &)
    in file meshes/polyMesh/polyPatches/constraint/wedge/wedgePolyPatch.C at line 70
    Wedge patch 'right' is not planar.
At local face at (642.33 -17.316 153.969) the normal (4.00664e-07 -0.99875 0.0499785) differs from the average normal (1.58443e-08 -0.99875 0.0499792) by 6.01428e-13
Either correct the patch or split it into planar parts
--> FOAM Warning : 
    From function void Foam::wedgePolyPatch::calcGeometry(Foam::PstreamBuffers &)
    in file meshes/polyMesh/polyPatches/constraint/wedge/wedgePolyPatch.C at line 70
    Wedge patch 'right' is not planar.
At local face at (942.612 -17.5834 148.626) the normal (2.32289e-07 -0.99875 0.0499797) differs from the average normal (1.58443e-08 -0.99875 0.0499792) by 2.49577e-13
Either correct the patch or split it into planar parts
--> FOAM Warning : 
    From function void Foam::wedgePolyPatch::calcGeometry(Foam::PstreamBuffers &)
    in file meshes/polyMesh/polyPatches/constraint/wedge/wedgePolyPatch.C at line 70
    Wedge patch 'right' is not planar.
At local face at (292.603 -20.228 95.7772) the normal (6.1857e-07 -0.99875 0.049979) differs from the average normal (1.58443e-08 -0.99875 0.0499792) by 4.27956e-13
Either correct the patch or split it into planar parts
--> FOAM Warning : 
    From function void Foam::wedgePolyPatch::calcGeometry(Foam::PstreamBuffers &)
    in file meshes/polyMesh/polyPatches/constraint/wedge/wedgePolyPatch.C at line 70
    Wedge patch 'right' is not planar.
At local face at (409.189 -15.1303 197.646) the normal (-1.3833e-07 -0.99875 0.0499777) differs from the average normal (1.58443e-08 -0.99875 0.0499792) by 2.37751e-12
Either correct the patch or split it into planar parts
--> FOAM Warning : 
    From function void Foam::wedgePolyPatch::calcGeometry(Foam::PstreamBuffers &)
    in file meshes/polyMesh/polyPatches/constraint/wedge/wedgePolyPatch.C at line 70
    Wedge patch 'right' is not planar.
At local face at (903.504 -19.2335 115.651) the normal (1.1255e-06 -0.99875 0.0499784) differs from the average normal (1.58443e-08 -0.99875 0.0499792) by 1.89966e-12
Either correct the patch or split it into planar parts
--> FOAM Warning : 
    From function void Foam::wedgePolyPatch::calcGeometry(Foam::PstreamBuffers &)
    in file meshes/polyMesh/polyPatches/constraint/wedge/wedgePolyPatch.C at line 70
    Wedge patch 'right' is not planar.
At local face at (333.027 -21.3688 72.9791) the normal (-1.68885e-06 -0.99875 0.0499792) differs from the average normal (1.58443e-08 -0.99875 0.0499792) by 2.90636e-12
Either correct the patch or split it into planar parts
--> FOAM Warning : 
    From function void Foam::wedgePolyPatch::calcGeometry(Foam::PstreamBuffers &)
    in file meshes/polyMesh/polyPatches/constraint/wedge/wedgePolyPatch.C at line 70
    Wedge patch 'right' is not planar.
At local face at (949.263 -22.3371 53.6301) the normal (-1.70664e-06 -0.99875 0.0499814) differs from the average normal (1.58443e-08 -0.99875 0.0499792) by 7.53824e-12
Either correct the patch or split it into planar parts
--> FOAM Warning : 
    From function void Foam::wedgePolyPatch::calcGeometry(Foam::PstreamBuffers &)
    in file meshes/polyMesh/polyPatches/constraint/wedge/wedgePolyPatch.C at line 70
    Wedge patch 'right' is not planar.
At local face at (974.781 -22.2774 54.8236) the normal (-4.09434e-07 -0.99875 0.0499814) differs from the average normal (1.58443e-08 -0.99875 0.0499792) by 5.09665e-12
Either correct the patch or split it into planar parts
--> FOAM Warning : 
    From function void Foam::wedgePolyPatch::calcGeometry(Foam::PstreamBuffers &)
    in file meshes/polyMesh/polyPatches/constraint/wedge/wedgePolyPatch.C at line 70
    Wedge patch 'right' is not planar.
At local face at (199.242 -23.7432 25.5327) the normal (1.25214e-06 -0.99875 0.0499793) differs from the average normal (1.58443e-08 -0.99875 0.0499792) by 1.54388e-12
Either correct the patch or split it into planar parts
--> FOAM Warning : 
    From function void Foam::wedgePolyPatch::calcGeometry(Foam::PstreamBuffers &)
    in file meshes/polyMesh/polyPatches/constraint/wedge/wedgePolyPatch.C at line 70
    Wedge patch 'right' is not planar.
At local face at (649.493 -21.389 72.5767) the normal (8.4709e-07 -0.99875 0.0499797) differs from the average normal (1.58443e-08 -0.99875 0.0499792) by 8.96531e-13
Either correct the patch or split it into planar parts
--> FOAM Warning : 
    From function void Foam::wedgePolyPatch::calcGeometry(Foam::PstreamBuffers &)
    in file meshes/polyMesh/polyPatches/constraint/wedge/wedgePolyPatch.C at line 70
    Wedge patch 'right' is not planar.
At local face at (433.743 -15.7405 185.452) the normal (-5.42755e-07 -0.99875 0.0499779) differs from the average normal (1.58443e-08 -0.99875 0.0499792) by 2.09675e-12
Either correct the patch or split it into planar parts
--> FOAM Warning : 
    From function void Foam::wedgePolyPatch::calcGeometry(Foam::PstreamBuffers &)
    in file meshes/polyMesh/polyPatches/constraint/wedge/wedgePolyPatch.C at line 70
    Wedge patch 'right' is not planar.
At local face at (249.419 -23.9274 21.8508) the normal (-2.2534e-07 -0.99875 0.0499801) differs from the average normal (1.58443e-08 -0.99875 0.0499792) by 8.6543e-13
Either correct the patch or split it into planar parts
--> FOAM Warning : 
    From function void Foam::wedgePolyPatch::calcGeometry(Foam::PstreamBuffers &)
    in file meshes/polyMesh/polyPatches/constraint/wedge/wedgePolyPatch.C at line 70
    Wedge patch 'right' is not planar.
At local face at (434.992 -17.1351 157.583) the normal (-7.98844e-07 -0.99875 0.0499807) differs from the average normal (1.58443e-08 -0.99875 0.0499792) by 2.78247e-12
Either correct the patch or split it into planar parts
--> FOAM Warning : 
    From function void Foam::wedgePolyPatch::calcGeometry(Foam::PstreamBuffers &)
    in file meshes/polyMesh/polyPatches/constraint/wedge/wedgePolyPatch.C at line 70
    Wedge patch 'right' is not planar.
At local face at (167.987 -19.6598 107.131) the normal (4.79098e-07 -0.99875 0.0499803) differs from the average normal (1.58443e-08 -0.99875 0.0499792) by 1.46645e-12
Either correct the patch or split it into planar parts
--> FOAM Warning : 
    From function void Foam::wedgePolyPatch::calcGeometry(Foam::PstreamBuffers &)
    in file meshes/polyMesh/polyPatches/constraint/wedge/wedgePolyPatch.C at line 70
    Wedge patch 'right' is not planar.
At local face at (412.087 -17.949 141.319) the normal (-8.76121e-07 -0.99875 0.0499806) differs from the average normal (1.58443e-08 -0.99875 0.0499792) by 2.7756e-12
Either correct the patch or split it into planar parts
--> FOAM Warning : 
    From function void Foam::wedgePolyPatch::calcGeometry(Foam::PstreamBuffers &)
    in file meshes/polyMesh/polyPatches/constraint/wedge/wedgePolyPatch.C at line 70
    Wedge patch 'right' is not planar.
At local face at (120.077 -18.5515 129.278) the normal (4.61045e-07 -0.99875 0.0499809) differs from the average normal (1.58443e-08 -0.99875 0.0499792) by 3.16806e-12
Either correct the patch or split it into planar parts
--> FOAM Warning : 
    From function void Foam::wedgePolyPatch::calcGeometry(Foam::PstreamBuffers &)
    in file meshes/polyMesh/polyPatches/constraint/wedge/wedgePolyPatch.C at line 70
    Wedge patch 'right' is not planar.
At local face at (51.4641 -22.4816 50.7428) the normal (-1.67274e-06 -0.99875 0.0499795) differs from the average normal (1.58443e-08 -0.99875 0.0499792) by 2.92003e-12
Either correct the patch or split it into planar parts
--> FOAM Warning : 
    From function void Foam::wedgePolyPatch::calcGeometry(Foam::PstreamBuffers &)
    in file meshes/polyMesh/polyPatches/constraint/wedge/wedgePolyPatch.C at line 70
    Wedge patch 'right' is not planar.
At local face at (597.58 -17.4645 151.002) the normal (-1.50802e-07 -0.99875 0.049978) differs from the average normal (1.58443e-08 -0.99875 0.0499792) by 1.41385e-12
Either correct the patch or split it into planar parts
--> FOAM Warning : 
    From function void Foam::wedgePolyPatch::calcGeometry(Foam::PstreamBuffers &)
    in file meshes/polyMesh/polyPatches/constraint/wedge/wedgePolyPatch.C at line 70
    Wedge patch 'right' is not planar.
At local face at (652.496 -23.6996 26.4029) the normal (2.2741e-07 -0.99875 0.0499788) differs from the average normal (1.58443e-08 -0.99875 0.0499792) by 1.87184e-13
Either correct the patch or split it into planar parts
--> FOAM Warning : 
    From function void Foam::wedgePolyPatch::calcGeometry(Foam::PstreamBuffers &)
    in file meshes/polyMesh/polyPatches/constraint/wedge/wedgePolyPatch.C at line 70
    Wedge patch 'right' is not planar.
At local face at (213.99 -14.1591 217.054) the normal (-4.75267e-07 -0.99875 0.0499792) differs from the average normal (1.58443e-08 -0.99875 0.0499792) by 2.41512e-13
Either correct the patch or split it into planar parts
--> FOAM Warning : 
    From function void Foam::wedgePolyPatch::calcGeometry(Foam::PstreamBuffers &)
    in file meshes/polyMesh/polyPatches/constraint/wedge/wedgePolyPatch.C at line 70
    Wedge patch 'right' is not planar.
At local face at (530.133 -19.3991 112.343) the normal (5.42007e-07 -0.99875 0.0499805) differs from the average normal (1.58443e-08 -0.99875 0.0499792) by 1.93822e-12
Either correct the patch or split it into planar parts
--> FOAM Warning : 
    From function void Foam::wedgePolyPatch::calcGeometry(Foam::PstreamBuffers &)
    in file meshes/polyMesh/polyPatches/constraint/wedge/wedgePolyPatch.C at line 70
    Wedge patch 'right' is not planar.
At local face at (972.025 -17.5341 149.611) the normal (1.53569e-06 -0.99875 0.0499797) differs from the average normal (1.58443e-08 -0.99875 0.0499792) by 2.53419e-12
Either correct the patch or split it into planar parts
--> FOAM Warning : 
    From function void Foam::wedgePolyPatch::calcGeometry(Foam::PstreamBuffers &)
    in file meshes/polyMesh/polyPatches/constraint/wedge/wedgePolyPatch.C at line 70
    Wedge patch 'right' is not planar.
At local face at (456.643 -14.9742 200.765) the normal (1.0992e-06 -0.99875 0.049979) differs from the average normal (1.58443e-08 -0.99875 0.0499792) by 1.23418e-12
Either correct the patch or split it into planar parts
--> FOAM Warning : 
    From function void Foam::wedgePolyPatch::calcGeometry(Foam::PstreamBuffers &)
    in file meshes/polyMesh/polyPatches/constraint/wedge/wedgePolyPatch.C at line 70
    Wedge patch 'right' is not planar.
At local face at (316.469 -19.4205 111.914) the normal (-8.23788e-07 -0.99875 0.0499778) differs from the average normal (1.58443e-08 -0.99875 0.0499792) by 2.65824e-12
Either correct the patch or split it into planar parts
--> FOAM Warning : 
    From function void Foam::wedgePolyPatch::calcGeometry(Foam::PstreamBuffers &)
    in file meshes/polyMesh/polyPatches/constraint/wedge/wedgePolyPatch.C at line 70
    Wedge patch 'right' is not planar.
At local face at (854.481 -19.1045 118.228) the normal (-3.55638e-07 -0.99875 0.0499808) differs from the average normal (1.58443e-08 -0.99875 0.0499792) by 2.78477e-12
Either correct the patch or split it into planar parts
--> FOAM Warning : 
    From function void Foam::wedgePolyPatch::calcGeometry(Foam::PstreamBuffers &)
    in file meshes/polyMesh/polyPatches/constraint/wedge/wedgePolyPatch.C at line 70
    Wedge patch 'right' is not planar.
At local face at (15.8828 -18.8153 124.008) the normal (2.85049e-07 -0.99875 0.0499805) differs from the average normal (1.58443e-08 -0.99875 0.0499792) by 1.73629e-12
Either correct the patch or split it into planar parts
--> FOAM Warning : 
    From function void Foam::wedgePolyPatch::calcGeometry(Foam::PstreamBuffers &)
    in file meshes/polyMesh/polyPatches/constraint/wedge/wedgePolyPatch.C at line 70
    Wedge patch 'right' is not planar.
At local face at (502.277 -13.5139 229.947) the normal (-7.23069e-07 -0.99875 0.0499787) differs from the average normal (1.58443e-08 -0.99875 0.0499792) by 7.80633e-13
Either correct the patch or split it into planar parts
--> FOAM Warning : 
    From function void Foam::wedgePolyPatch::calcGeometry(Foam::PstreamBuffers &)
    in file meshes/polyMesh/polyPatches/constraint/wedge/wedgePolyPatch.C at line 70
    Wedge patch 'right' is not planar.
At local face at (897.395 -20.4871 90.6) the normal (1.44554e-06 -0.99875 0.04998) differs from the average normal (1.58443e-08 -0.99875 0.0499792) by 2.71139e-12
Either correct the patch or split it into planar parts
--> FOAM Warning : 
    From function void Foam::wedgePolyPatch::calcGeometry(Foam::PstreamBuffers &)
    in file meshes/polyMesh/polyPatches/constraint/wedge/wedgePolyPatch.C at line 70
    Wedge patch 'right' is not planar.
At local face at (882.056 -18.3997 132.314) the normal (-1.33233e-06 -0.99875 0.0499804) differs from the average normal (1.58443e-08 -0.99875 0.0499792) by 3.15034e-12
Either correct the patch or split it into planar parts
--> FOAM Warning : 
    From function void Foam::wedgePolyPatch::calcGeometry(Foam::PstreamBuffers &)
    in file meshes/polyMesh/polyPatches/constraint/wedge/wedgePolyPatch.C at line 70
    Wedge patch 'right' is not planar.
At local face at (505.654 -17.5484 149.324) the normal (-7.34209e-07 -0.99875 0.0499776) differs from the average normal (1.58443e-08 -0.99875 0.0499792) by 3.33745e-12
Either correct the patch or split it into planar parts
--> FOAM Warning : 
    From function void Foam::wedgePolyPatch::calcGeometry(Foam::PstreamBuffers &)
    in file meshes/polyMesh/polyPatches/constraint/wedge/wedgePolyPatch.C at line 70
    Wedge patch 'right' is not planar.
At local face at (99.0234 -20.515 90.0426) the normal (-1.31956e-06 -0.99875 0.0499781) differs from the average normal (1.58443e-08 -0.99875 0.0499792) by 3.08174e-12
Either correct the patch or split it into planar parts
--> FOAM Warning : 
    From function void Foam::wedgePolyPatch::calcGeometry(Foam::PstreamBuffers &)
    in file meshes/polyMesh/polyPatches/constraint/wedge/wedgePolyPatch.C at line 70
    Wedge patch 'right' is not planar.
At local face at (30.3155 -17.5657 148.979) the normal (-1.63281e-07 -0.99875 0.0499798) differs from the average normal (1.58443e-08 -0.99875 0.0499792) by 3.48979e-13
Either correct the patch or split it into planar parts
--> FOAM Warning : 
    From function void Foam::wedgePolyPatch::calcGeometry(Foam::PstreamBuffers &)
    in file meshes/polyMesh/polyPatches/constraint/wedge/wedgePolyPatch.C at line 70
    Wedge patch 'right' is not planar.
At local face at (735.389 -20.7503 85.3403) the normal (2.07367e-07 -0.99875 0.0499792) differs from the average normal (1.58443e-08 -0.99875 0.0499792) by 3.86078e-14
Either correct the patch or split it into planar parts
--> FOAM Warning : 
    From function void Foam::wedgePolyPatch::calcGeometry(Foam::PstreamBuffers &)
    in file meshes/polyMesh/polyPatches/constraint/wedge/wedgePolyPatch.C at line 70
    Wedge patch 'right' is not planar.
At local face at (263.052 -14.0669 218.897) the normal (-7.35957e-07 -0.99875 0.0499794) differs from the average normal (1.58443e-08 -0.99875 0.0499792) by 5.90031e-13
Either correct the patch or split it into planar parts
--> FOAM Warning : 
    From function void Foam::wedgePolyPatch::calcGeometry(Foam::PstreamBuffers &)
    in file meshes/polyMesh/polyPatches/constraint/wedge/wedgePolyPatch.C at line 70
    Wedge patch 'right' is not planar.
At local face at (311.814 -13.9667 220.899) the normal (3.54895e-07 -0.99875 0.0499789) differs from the average normal (1.58443e-08 -0.99875 0.0499792) by 2.21026e-13
Either correct the patch or split it into planar parts
--> FOAM Warning : 
    From function void Foam::wedgePolyPatch::calcGeometry(Foam::PstreamBuffers &)
    in file meshes/polyMesh/polyPatches/constraint/wedge/wedgePolyPatch.C at line 70
    Wedge patch 'right' is not planar.
At local face at (619.141 -16.6932 166.415) the normal (5.42544e-07 -0.99875 0.0499785) differs from the average normal (1.58443e-08 -0.99875 0.0499792) by 8.16567e-13
Either correct the patch or split it into planar parts
--> FOAM Warning : 
    From function void Foam::wedgePolyPatch::calcGeometry(Foam::PstreamBuffers &)
    in file meshes/polyMesh/polyPatches/constraint/wedge/wedgePolyPatch.C at line 70
    Wedge patch 'right' is not planar.
At local face at (835.996 -13.1229 237.761) the normal (-8.86756e-07 -0.99875 0.0499803) differs from the average normal (1.58443e-08 -0.99875 0.0499792) by 1.88554e-12
Either correct the patch or split it into planar parts
--> FOAM Warning : 
    From function void Foam::wedgePolyPatch::calcGeometry(Foam::PstreamBuffers &)
    in file meshes/polyMesh/polyPatches/constraint/wedge/wedgePolyPatch.C at line 70
    Wedge patch 'right' is not planar.
At local face at (455.263 -13.6213 227.801) the normal (1.11464e-06 -0.99875 0.0499787) differs from the average normal (1.58443e-08 -0.99875 0.0499792) by 1.51564e-12
Either correct the patch or split it into planar parts
--> FOAM Warning : 
    From function void Foam::wedgePolyPatch::calcGeometry(Foam::PstreamBuffers &)
    in file meshes/polyMesh/polyPatches/constraint/wedge/wedgePolyPatch.C at line 70
    Wedge patch 'right' is not planar.
At local face at (986.154 -18.7468 125.377) the normal (1.00814e-06 -0.99875 0.0499806) differs from the average normal (1.58443e-08 -0.99875 0.0499792) by 2.84981e-12
Either correct the patch or split it into planar parts
--> FOAM Warning : 
    From function void Foam::wedgePolyPatch::calcGeometry(Foam::PstreamBuffers &)
    in file meshes/polyMesh/polyPatches/constraint/wedge/wedgePolyPatch.C at line 70
    Wedge patch 'right' is not planar.
At local face at (789.873 -14.3101 214.036) the normal (-2.97659e-07 -0.99875 0.0499785) differs from the average normal (1.58443e-08 -0.99875 0.0499792) by 6.65884e-13
Either correct the patch or split it into planar parts
--> FOAM Warning : 
    From function void Foam::wedgePolyPatch::calcGeometry(Foam::PstreamBuffers &)
    in file meshes/polyMesh/polyPatches/constraint/wedge/wedgePolyPatch.C at line 70
    Wedge patch 'right' is not planar.
At local face at (791.42 -12.9902 240.413) the normal (-2.89959e-07 -0.99875 0.0499786) differs from the average normal (1.58443e-08 -0.99875 0.0499792) by 4.42665e-13
Either correct the patch or split it into planar parts
--> FOAM Warning : 
    From function void Foam::wedgePolyPatch::calcGeometry(Foam::PstreamBuffers &)
    in file meshes/polyMesh/polyPatches/constraint/wedge/wedgePolyPatch.C at line 70
    Wedge patch 'right' is not planar.
At local face at (238.025 -13.4068 232.087) the normal (-4.4228e-07 -0.99875 0.0499792) differs from the average normal (1.58443e-08 -0.99875 0.0499792) by 2.09886e-13
Either correct the patch or split it into planar parts
--> FOAM Warning : 
    From function void Foam::wedgePolyPatch::calcGeometry(Foam::PstreamBuffers &)
    in file meshes/polyMesh/polyPatches/constraint/wedge/wedgePolyPatch.C at line 70
    Wedge patch 'right' is not planar.
At local face at (142.652 -16.4546 171.182) the normal (-2.09402e-07 -0.99875 0.0499777) differs from the average normal (1.58443e-08 -0.99875 0.0499792) by 2.35359e-12
Either correct the patch or split it into planar parts
--> FOAM Warning : 
    From function void Foam::wedgePolyPatch::calcGeometry(Foam::PstreamBuffers &)
    in file meshes/polyMesh/polyPatches/constraint/wedge/wedgePolyPatch.C at line 70
    Wedge patch 'right' is not planar.
At local face at (188.927 -13.4937 230.351) the normal (5.84039e-07 -0.99875 0.0499786) differs from the average normal (1.58443e-08 -0.99875 0.0499792) by 6.60239e-13
Either correct the patch or split it into planar parts
--> FOAM Warning : 
    From function void Foam::wedgePolyPatch::calcGeometry(Foam::PstreamBuffers &)
    in file meshes/polyMesh/polyPatches/constraint/wedge/wedgePolyPatch.C at line 70
    Wedge patch 'right' is not planar.
At local face at (857.287 -16.4117 172.039) the normal (-8.51835e-07 -0.99875 0.0499783) differs from the average normal (1.58443e-08 -0.99875 0.0499792) by 1.56957e-12
Either correct the patch or split it into planar parts
--> FOAM Warning : 
    From function void Foam::wedgePolyPatch::calcGeometry(Foam::PstreamBuffers &)
    in file meshes/polyMesh/polyPatches/constraint/wedge/wedgePolyPatch.C at line 70
    Wedge patch 'right' is not planar.
At local face at (360.091 -13.8583 223.065) the normal (-1.73861e-07 -0.99875 0.0499793) differs from the average normal (1.58443e-08 -0.99875 0.0499792) by 3.71246e-14
Either correct the patch or split it into planar parts
--> FOAM Warning : 
    From function void Foam::wedgePolyPatch::calcGeometry(Foam::PstreamBuffers &)
    in file meshes/polyMesh/polyPatches/constraint/wedge/wedgePolyPatch.C at line 70
    Wedge patch 'right' is not planar.
At local face at (286.902 -13.3113 233.997) the normal (-6.60983e-07 -0.99875 0.0499794) differs from the average normal (1.58443e-08 -0.99875 0.0499792) by 5.00048e-13
Either correct the patch or split it into planar parts
--> FOAM Warning : 
    From function void Foam::wedgePolyPatch::calcGeometry(Foam::PstreamBuffers &)
    in file meshes/polyMesh/polyPatches/constraint/wedge/wedgePolyPatch.C at line 70
    Wedge patch 'right' is not planar.
At local face at (166.3 -15.6827 186.606) the normal (8.65056e-07 -0.99875 0.0499783) differs from the average normal (1.58443e-08 -0.99875 0.0499792) by 1.4899e-12
Either correct the patch or split it into planar parts
--> FOAM Warning : 
    From function void Foam::wedgePolyPatch::calcGeometry(Foam::PstreamBuffers &)
    in file meshes/polyMesh/polyPatches/constraint/wedge/wedgePolyPatch.C at line 70
    Wedge patch 'right' is not planar.
At local face at (478.28 -12.8886 242.444) the normal (3.50556e-07 -0.99875 0.0499782) differs from the average normal (1.58443e-08 -0.99875 0.0499792) by 1.20458e-12
Either correct the patch or split it into planar parts
--> FOAM Warning : 
    From function void Foam::wedgePolyPatch::calcGeometry(Foam::PstreamBuffers &)
    in file meshes/polyMesh/polyPatches/constraint/wedge/wedgePolyPatch.C at line 70
    Wedge patch 'right' is not planar.
At local face at (335.448 -13.2135 235.951) the normal (4.31256e-07 -0.99875 0.0499789) differs from the average normal (1.58443e-08 -0.99875 0.0499792) by 2.49573e-13
Either correct the patch or split it into planar parts
--> FOAM Warning : 
    From function void Foam::wedgePolyPatch::calcGeometry(Foam::PstreamBuffers &)
    in file meshes/polyMesh/polyPatches/constraint/wedge/wedgePolyPatch.C at line 70
    Wedge patch 'right' is not planar.
At local face at (190.736 -20.2925 94.4891) the normal (3.9424e-08 -0.99875 0.0499806) differs from the average normal (1.58443e-08 -0.99875 0.0499792) by 2.02529e-12
Either correct the patch or split it into planar parts
--> FOAM Warning : 
    From function void Foam::wedgePolyPatch::calcGeometry(Foam::PstreamBuffers &)
    in file meshes/polyMesh/polyPatches/constraint/wedge/wedgePolyPatch.C at line 70
    Wedge patch 'right' is not planar.
At local face at (407.84 -13.7396 225.438) the normal (-2.67554e-07 -0.99875 0.04998) differs from the average normal (1.58443e-08 -0.99875 0.0499792) by 6.94253e-13
Either correct the patch or split it into planar parts
--> FOAM Warning : 
    From function void Foam::wedgePolyPatch::calcGeometry(Foam::PstreamBuffers &)
    in file meshes/polyMesh/polyPatches/constraint/wedge/wedgePolyPatch.C at line 70
    Wedge patch 'right' is not planar.
At local face at (165.372 -14.2617 215.003) the normal (8.39579e-07 -0.99875 0.0499788) differs from the average normal (1.58443e-08 -0.99875 0.0499792) by 8.56449e-13
Either correct the patch or split it into planar parts
--> FOAM Warning : 
    From function void Foam::wedgePolyPatch::calcGeometry(Foam::PstreamBuffers &)
    in file meshes/polyMesh/polyPatches/constraint/wedge/wedgePolyPatch.C at line 70
    Wedge patch 'right' is not planar.
At local face at (764.979 -16.2277 175.717) the normal (6.59428e-07 -0.99875 0.0499782) differs from the average normal (1.58443e-08 -0.99875 0.0499792) by 1.39117e-12
Either correct the patch or split it into planar parts
--> FOAM Warning : 
    From function void Foam::wedgePolyPatch::calcGeometry(Foam::PstreamBuffers &)
    in file meshes/polyMesh/polyPatches/constraint/wedge/wedgePolyPatch.C at line 70
    Wedge patch 'right' is not planar.
At local face at (883.293 -17.0489 159.306) the normal (-1.27617e-06 -0.99875 0.0499786) differs from the average normal (1.58443e-08 -0.99875 0.0499792) by 2.09206e-12
Either correct the patch or split it into planar parts
--> FOAM Warning : 
    From function void Foam::wedgePolyPatch::calcGeometry(Foam::PstreamBuffers &)
    in file meshes/polyMesh/polyPatches/constraint/wedge/wedgePolyPatch.C at line 70
    Wedge patch 'right' is not planar.
At local face at (383.43 -13.1071 238.077) the normal (4.34379e-07 -0.99875 0.0499796) differs from the average normal (1.58443e-08 -0.99875 0.0499792) by 3.4962e-13
Either correct the patch or split it into planar parts
--> FOAM Warning : 
    From function void Foam::wedgePolyPatch::calcGeometry(Foam::PstreamBuffers &)
    in file meshes/polyMesh/polyPatches/constraint/wedge/wedgePolyPatch.C at line 70
    Wedge patch 'right' is not planar.
At local face at (549.172 -14.7919 204.409) the normal (7.99783e-07 -0.99875 0.0499785) differs from the average normal (1.58443e-08 -0.99875 0.0499792) by 1.11227e-12
Either correct the patch or split it into planar parts
--> FOAM Warning : 
    From function void Foam::wedgePolyPatch::calcGeometry(Foam::PstreamBuffers &)
    in file meshes/polyMesh/polyPatches/constraint/wedge/wedgePolyPatch.C at line 70
    Wedge patch 'right' is not planar.
At local face at (431.014 -12.9968 240.28) the normal (-7.97666e-07 -0.99875 0.0499797) differs from the average normal (1.58443e-08 -0.99875 0.0499792) by 8.59937e-13
Either correct the patch or split it into planar parts
[...]
Either correct the patch or split it into planar parts
--> FOAM Warning : 
    From function void Foam::wedgePolyPatch::calcGeometry(Foam::PstreamBuffers &)
    in file meshes/polyMesh/polyPatches/constraint/wedge/wedgePolyPatch.C at line 70
    Wedge patch 'left' is not planar.
At local face at (588.158 1.37231 472.577) the normal (-1.3693e-07 0.99875 0.049979) differs from the average normal (1.72523e-08 0.99875 0.0499792) by 5.87593e-14
Either correct the patch or split it into planar parts
--> FOAM Warning : 
    From function void Foam::wedgePolyPatch::calcGeometry(Foam::PstreamBuffers &)
    in file meshes/polyMesh/polyPatches/constraint/wedge/wedgePolyPatch.C at line 70
    Wedge patch 'left' is not planar.
At local face at (902.254 3.83183 423.427) the normal (-3.03101e-07 0.99875 0.0499802) differs from the average normal (1.72523e-08 0.99875 0.0499792) by 9.71045e-13
Either correct the patch or split it into planar parts
--> FOAM Warning : 
    From function void Foam::wedgePolyPatch::calcGeometry(Foam::PstreamBuffers &)
    in file meshes/polyMesh/polyPatches/constraint/wedge/wedgePolyPatch.C at line 70
    Wedge patch 'left' is not planar.
At local face at (275.5 3.48629 430.332) the normal (-1.6791e-07 0.99875 0.0499793) differs from the average normal (1.72523e-08 0.99875 0.0499792) by 4.75958e-14
Either correct the patch or split it into planar parts
--> FOAM Warning : 
    From function void Foam::wedgePolyPatch::calcGeometry(Foam::PstreamBuffers &)
    in file meshes/polyMesh/polyPatches/constraint/wedge/wedgePolyPatch.C at line 70
    Wedge patch 'left' is not planar.
At local face at (296.211 1.39531 472.117) the normal (-1.9841e-07 0.99875 0.0499792) differs from the average normal (1.72523e-08 0.99875 0.0499792) by 4.92593e-14
Either correct the patch or split it into planar parts
--> FOAM Warning : 
    From function void Foam::wedgePolyPatch::calcGeometry(Foam::PstreamBuffers &)
    in file meshes/polyMesh/polyPatches/constraint/wedge/wedgePolyPatch.C at line 70
    Wedge patch 'left' is not planar.
At local face at (298.254 2.78409 444.365) the normal (-1.98383e-07 0.99875 0.0499793) differs from the average normal (1.72523e-08 0.99875 0.0499792) by 5.5505e-14
Either correct the patch or split it into planar parts
--> FOAM Warning : 
    From function void Foam::wedgePolyPatch::calcGeometry(Foam::PstreamBuffers &)
    in file meshes/polyMesh/polyPatches/constraint/wedge/wedgePolyPatch.C at line 70
    Wedge patch 'left' is not planar.
At local face at (111.061 2.57214 448.6) the normal (2.38802e-09 0.99875 0.0499786) differs from the average normal (1.72523e-08 0.99875 0.0499792) by 3.35203e-13
Either correct the patch or split it into planar parts
--> FOAM Warning : 
    From function void Foam::wedgePolyPatch::calcGeometry(Foam::PstreamBuffers &)
    in file meshes/polyMesh/polyPatches/constraint/wedge/wedgePolyPatch.C at line 70
    Wedge patch 'left' is not planar.
At local face at (140.851 2.57371 448.569) the normal (-3.62557e-07 0.99875 0.0499786) differs from the average normal (1.72523e-08 0.99875 0.0499792) by 5.05721e-13
Either correct the patch or split it into planar parts
--> FOAM Warning : 
    From function void Foam::wedgePolyPatch::calcGeometry(Foam::PstreamBuffers &)
    in file meshes/polyMesh/polyPatches/constraint/wedge/wedgePolyPatch.C at line 70
    Wedge patch 'left' is not planar.
At local face at (147.49 1.33153 473.392) the normal (-1.33437e-07 0.99875 0.0499794) differs from the average normal (1.72523e-08 0.99875 0.0499792) by 6.37184e-14
Either correct the patch or split it into planar parts
--> FOAM Warning : 
    From function void Foam::wedgePolyPatch::calcGeometry(Foam::PstreamBuffers &)
    in file meshes/polyMesh/polyPatches/constraint/wedge/wedgePolyPatch.C at line 70
    Wedge patch 'left' is not planar.
At local face at (735.42 1.47668 470.491) the normal (-8.66155e-07 0.99875 0.0499791) differs from the average normal (1.72523e-08 0.99875 0.0499792) by 8.07508e-13
Either correct the patch or split it into planar parts
--> FOAM Warning : 
    From function void Foam::wedgePolyPatch::calcGeometry(Foam::PstreamBuffers &)
    in file meshes/polyMesh/polyPatches/constraint/wedge/wedgePolyPatch.C at line 70
    Wedge patch 'left' is not planar.
At local face at (736.215 2.43826 451.275) the normal (-6.79726e-07 0.99875 0.0499799) differs from the average normal (1.72523e-08 0.99875 0.0499792) by 8.83042e-13
Either correct the patch or split it into planar parts
--> FOAM Warning : 
    From function void Foam::wedgePolyPatch::calcGeometry(Foam::PstreamBuffers &)
    in file meshes/polyMesh/polyPatches/constraint/wedge/wedgePolyPatch.C at line 70
    Wedge patch 'left' is not planar.
At local face at (53.2038 2.6678 446.688) the normal (-2.82586e-07 0.99875 0.0499799) differs from the average normal (1.72523e-08 0.99875 0.0499792) by 5.94299e-13
Either correct the patch or split it into planar parts
--> FOAM Warning : 
    From function void Foam::wedgePolyPatch::calcGeometry(Foam::PstreamBuffers &)
    in file meshes/polyMesh/polyPatches/constraint/wedge/wedgePolyPatch.C at line 70
    Wedge patch 'left' is not planar.
At local face at (55.5318 1.38458 472.331) the normal (-5.31567e-07 0.99875 0.0499788) differs from the average normal (1.72523e-08 0.99875 0.0499792) by 4.97179e-13
Either correct the patch or split it into planar parts
--> FOAM Warning : 
    From function void Foam::wedgePolyPatch::calcGeometry(Foam::PstreamBuffers &)
    in file meshes/polyMesh/polyPatches/constraint/wedge/wedgePolyPatch.C at line 70
    Wedge patch 'left' is not planar.
At local face at (98.5477 3.70024 426.057) the normal (1.77949e-07 0.99875 0.0499789) differs from the average normal (1.72523e-08 0.99875 0.0499792) by 1.09996e-13
Either correct the patch or split it into planar parts
--> FOAM Warning : 
    From function void Foam::wedgePolyPatch::calcGeometry(Foam::PstreamBuffers &)
    in file meshes/polyMesh/polyPatches/constraint/wedge/wedgePolyPatch.C at line 70
    Wedge patch 'left' is not planar.
At local face at (599.43 23.4333 31.725) the normal (-5.67338e-07 0.99875 0.0499791) differs from the average normal (1.72523e-08 0.99875 0.0499792) by 3.54215e-13
Either correct the patch or split it into planar parts
--> FOAM Warning : 
    From function void Foam::wedgePolyPatch::calcGeometry(Foam::PstreamBuffers &)
    in file meshes/polyMesh/polyPatches/constraint/wedge/wedgePolyPatch.C at line 70
    Wedge patch 'left' is not planar.
At local face at (752.865 3.1161 437.73) the normal (4.20751e-06 0.99875 0.0499811) differs from the average normal (1.72523e-08 0.99875 0.0499792) by 2.09536e-11
Either correct the patch or split it into planar parts
--> FOAM Warning : 
    From function void Foam::wedgePolyPatch::calcGeometry(Foam::PstreamBuffers &)
    in file meshes/polyMesh/polyPatches/constraint/wedge/wedgePolyPatch.C at line 70
    Wedge patch 'left' is not planar.
At local face at (852.664 20.3075 94.1889) the normal (-1.71177e-06 0.99875 0.0499777) differs from the average normal (1.72523e-08 0.99875 0.0499792) by 5.2842e-12
Either correct the patch or split it into planar parts
Reading transportProperties

Reading field p

Reading field U

Reading/calculating face flux field phi


Starting time loop

Time = 0.002

Courant Number mean: 0.000157962 max: 0.00387263
smoothSolver:  Solving for Ux, Initial residual = 1, Final residual = 6.55582e-09, No Iterations 1
smoothSolver:  Solving for Uy, Initial residual = 1, Final residual = 5.91048e-09, No Iterations 1
smoothSolver:  Solving for Uz, Initial residual = 1, Final residual = 5.11487e-09, No Iterations 1
DICPCG:  Solving for p, Initial residual = 1, Final residual = 8.91016e-08, No Iterations 118
time step continuity errors : sum local = 1.87893e-15, global = 2.40232e-17, cumulative = 2.40232e-17
DICPCG:  Solving for p, Initial residual = 6.74245e-05, Final residual = 9.99818e-08, No Iterations 76
time step continuity errors : sum local = 2.07689e-13, global = -2.07582e-15, cumulative = -2.0518e-15
ExecutionTime = 0.05 s  ClockTime = 0 s

Time = 0.004

Courant Number mean: 0.000156802 max: 0.00493472
smoothSolver:  Solving for Ux, Initial residual = 0.453665, Final residual = 3.67528e-09, No Iterations 1
smoothSolver:  Solving for Uy, Initial residual = 0.265111, Final residual = 2.57562e-09, No Iterations 1
smoothSolver:  Solving for Uz, Initial residual = 0.18189, Final residual = 1.82298e-09, No Iterations 1
DICPCG:  Solving for p, Initial residual = 0.228725, Final residual = 7.32058e-08, No Iterations 106
time step continuity errors : sum local = 1.92724e-13, global = 3.23602e-15, cumulative = 1.18422e-15
DICPCG:  Solving for p, Initial residual = 5.12691e-05, Final residual = 9.95843e-08, No Iterations 72
time step continuity errors : sum local = 2.83304e-13, global = -1.50557e-14, cumulative = -1.38715e-14
ExecutionTime = 0.07 s  ClockTime = 0 s

Time = 0.006

Courant Number mean: 0.000156004 max: 0.00702304
smoothSolver:  Solving for Ux, Initial residual = 0.27663, Final residual = 2.92363e-09, No Iterations 1
smoothSolver:  Solving for Uy, Initial residual = 0.206955, Final residual = 1.96155e-09, No Iterations 1
smoothSolver:  Solving for Uz, Initial residual = 0.102438, Final residual = 1.37409e-09, No Iterations 1
DICPCG:  Solving for p, Initial residual = 0.167547, Final residual = 6.72886e-08, No Iterations 106
time step continuity errors : sum local = 2.08331e-13, global = -3.64135e-15, cumulative = -1.75129e-14
DICPCG:  Solving for p, Initial residual = 5.48526e-05, Final residual = 8.50149e-08, No Iterations 71
time step continuity errors : sum local = 4.24813e-13, global = 2.88945e-14, cumulative = 1.13817e-14
ExecutionTime = 0.08 s  ClockTime = 0 s

Time = 0.008

Courant Number mean: 0.000157918 max: 0.00826301
smoothSolver:  Solving for Ux, Initial residual = 0.572061, Final residual = 3.60554e-09, No Iterations 1
smoothSolver:  Solving for Uy, Initial residual = 0.337527, Final residual = 3.23324e-09, No Iterations 1
smoothSolver:  Solving for Uz, Initial residual = 0.317606, Final residual = 1.82381e-09, No Iterations 1
DICPCG:  Solving for p, Initial residual = 0.239905, Final residual = 8.84865e-08, No Iterations 102
time step continuity errors : sum local = 4.32695e-13, global = 3.6535e-15, cumulative = 1.50352e-14
DICPCG:  Solving for p, Initial residual = 3.0354e-05, Final residual = 8.90488e-08, No Iterations 70
time step continuity errors : sum local = 7.8201e-13, global = -6.53067e-15, cumulative = 8.50449e-15
ExecutionTime = 0.09 s  ClockTime = 0 s

Time = 0.01

Courant Number mean: 0.000162308 max: 0.00854967
smoothSolver:  Solving for Ux, Initial residual = 0.511396, Final residual = 2.56751e-09, No Iterations 1
smoothSolver:  Solving for Uy, Initial residual = 0.346678, Final residual = 2.54364e-09, No Iterations 1
smoothSolver:  Solving for Uz, Initial residual = 0.331695, Final residual = 2.21917e-09, No Iterations 1
DICPCG:  Solving for p, Initial residual = 0.175161, Final residual = 9.57883e-08, No Iterations 103
time step continuity errors : sum local = 9.48511e-13, global = -4.20001e-15, cumulative = 4.30448e-15
DICPCG:  Solving for p, Initial residual = 1.8654e-05, Final residual = 8.75247e-08, No Iterations 66
time step continuity errors : sum local = 1.44773e-12, global = -6.65203e-14, cumulative = -6.22158e-14
ExecutionTime = 0.1 s  ClockTime = 0 s

Time = 0.012

Courant Number mean: 0.00017124 max: 0.00897112
smoothSolver:  Solving for Ux, Initial residual = 0.443369, Final residual = 2.42575e-09, No Iterations 1
smoothSolver:  Solving for Uy, Initial residual = 0.270647, Final residual = 2.11258e-09, No Iterations 1
smoothSolver:  Solving for Uz, Initial residual = 0.263166, Final residual = 2.16583e-09, No Iterations 1
DICPCG:  Solving for p, Initial residual = 0.144126, Final residual = 6.91821e-08, No Iterations 104
time step continuity errors : sum local = 1.27718e-12, global = -4.80396e-15, cumulative = -6.70198e-14
DICPCG:  Solving for p, Initial residual = 4.90102e-05, Final residual = 9.2336e-08, No Iterations 76
time step continuity errors : sum local = 1.0362e-12, global = 1.61115e-14, cumulative = -5.09082e-14
ExecutionTime = 0.12 s  ClockTime = 0 s

Time = 0.014

Courant Number mean: 0.000178559 max: 0.00943292
smoothSolver:  Solving for Ux, Initial residual = 0.285635, Final residual = 1.94555e-09, No Iterations 1
smoothSolver:  Solving for Uy, Initial residual = 0.188143, Final residual = 1.61624e-09, No Iterations 1
smoothSolver:  Solving for Uz, Initial residual = 0.257639, Final residual = 1.66543e-09, No Iterations 1
DICPCG:  Solving for p, Initial residual = 0.323095, Final residual = 8.96455e-08, No Iterations 105
time step continuity errors : sum local = 9.98148e-13, global = -1.56755e-14, cumulative = -6.65837e-14
DICPCG:  Solving for p, Initial residual = 6.11768e-05, Final residual = 9.03277e-08, No Iterations 80
time step continuity errors : sum local = 1.09681e-12, global = -1.69895e-14, cumulative = -8.35732e-14
ExecutionTime = 0.13 s  ClockTime = 0 s

Time = 0.016

Courant Number mean: 0.000184879 max: 0.0103272
smoothSolver:  Solving for Ux, Initial residual = 0.262029, Final residual = 2.32049e-09, No Iterations 1
smoothSolver:  Solving for Uy, Initial residual = 0.210937, Final residual = 2.45409e-09, No Iterations 1
smoothSolver:  Solving for Uz, Initial residual = 0.257802, Final residual = 2.08501e-09, No Iterations 1
DICPCG:  Solving for p, Initial residual = 0.322467, Final residual = 7.0715e-08, No Iterations 109
time step continuity errors : sum local = 9.3353e-13, global = -5.77205e-15, cumulative = -8.93453e-14
DICPCG:  Solving for p, Initial residual = 5.30133e-05, Final residual = 8.57126e-08, No Iterations 80
time step continuity errors : sum local = 3.76481e-12, global = 1.71945e-14, cumulative = -7.21508e-14
ExecutionTime = 0.15 s  ClockTime = 0 s

Time = 0.018

Courant Number mean: 0.000217168 max: 0.0128727
smoothSolver:  Solving for Ux, Initial residual = 0.482665, Final residual = 6.75317e-09, No Iterations 1
smoothSolver:  Solving for Uy, Initial residual = 0.222651, Final residual = 6.1723e-09, No Iterations 1
smoothSolver:  Solving for Uz, Initial residual = 0.227745, Final residual = 5.08771e-09, No Iterations 1
DICPCG:  Solving for p, Initial residual = 0.214423, Final residual = 7.12249e-08, No Iterations 105
time step continuity errors : sum local = 3.65552e-12, global = -1.10625e-13, cumulative = -1.82776e-13
DICPCG:  Solving for p, Initial residual = 5.13136e-05, Final residual = 9.12416e-08, No Iterations 80
time step continuity errors : sum local = 1.49509e-11, global = 7.40358e-14, cumulative = -1.0874e-13
ExecutionTime = 0.16 s  ClockTime = 0 s

Time = 0.02

Courant Number mean: 0.000340881 max: 0.0229502
smoothSolver:  Solving for Ux, Initial residual = 0.589244, Final residual = 2.51315e-08, No Iterations 1
smoothSolver:  Solving for Uy, Initial residual = 0.25419, Final residual = 2.21806e-08, No Iterations 1
smoothSolver:  Solving for Uz, Initial residual = 0.252589, Final residual = 2.08994e-08, No Iterations 1
DICPCG:  Solving for p, Initial residual = 0.190572, Final residual = 8.29262e-08, No Iterations 103
time step continuity errors : sum local = 1.65026e-11, global = 6.49856e-14, cumulative = -4.37547e-14
DICPCG:  Solving for p, Initial residual = 8.22547e-05, Final residual = 7.88234e-08, No Iterations 83
time step continuity errors : sum local = 4.06311e-11, global = 7.57894e-14, cumulative = 3.20348e-14
ExecutionTime = 0.17 s  ClockTime = 0 s

Time = 0.022

Courant Number mean: 0.000733425 max: 0.0593385
smoothSolver:  Solving for Ux, Initial residual = 0.588372, Final residual = 9.37921e-12, No Iterations 2
smoothSolver:  Solving for Uy, Initial residual = 0.251341, Final residual = 4.41151e-12, No Iterations 2
smoothSolver:  Solving for Uz, Initial residual = 0.25106, Final residual = 4.7933e-12, No Iterations 2
DICPCG:  Solving for p, Initial residual = 0.172175, Final residual = 6.89735e-08, No Iterations 105
time step continuity errors : sum local = 4.24643e-11, global = -4.41219e-13, cumulative = -4.09184e-13
DICPCG:  Solving for p, Initial residual = 0.0001748, Final residual = 8.62806e-08, No Iterations 85
time step continuity errors : sum local = 1.2571e-10, global = 9.18074e-13, cumulative = 5.0889e-13
ExecutionTime = 0.19 s  ClockTime = 0 s

Time = 0.024

Courant Number mean: 0.00186656 max: 0.155055
smoothSolver:  Solving for Ux, Initial residual = 0.574672, Final residual = 4.18297e-10, No Iterations 2
smoothSolver:  Solving for Uy, Initial residual = 0.244776, Final residual = 2.1262e-10, No Iterations 2
smoothSolver:  Solving for Uz, Initial residual = 0.24509, Final residual = 2.34067e-10, No Iterations 2
DICPCG:  Solving for p, Initial residual = 0.162344, Final residual = 7.7627e-08, No Iterations 104
time step continuity errors : sum local = 1.34227e-10, global = -3.67836e-12, cumulative = -3.16947e-12
DICPCG:  Solving for p, Initial residual = 0.000473302, Final residual = 9.48124e-08, No Iterations 88
time step continuity errors : sum local = 3.89469e-10, global = 9.31844e-12, cumulative = 6.14897e-12
ExecutionTime = 0.2 s  ClockTime = 0 s

Time = 0.026

Courant Number mean: 0.00509247 max: 0.431624
smoothSolver:  Solving for Ux, Initial residual = 0.571204, Final residual = 2.4404e-08, No Iterations 2
smoothSolver:  Solving for Uy, Initial residual = 0.244687, Final residual = 1.25648e-08, No Iterations 2
smoothSolver:  Solving for Uz, Initial residual = 0.243513, Final residual = 1.2825e-08, No Iterations 2
DICPCG:  Solving for p, Initial residual = 0.164424, Final residual = 9.09522e-08, No Iterations 104
time step continuity errors : sum local = 4.49162e-10, global = -8.67596e-12, cumulative = -2.52699e-12
DICPCG:  Solving for p, Initial residual = 0.00127321, Final residual = 9.08298e-08, No Iterations 91
time step continuity errors : sum local = 1.06771e-09, global = 4.33785e-11, cumulative = 4.08515e-11
ExecutionTime = 0.21 s  ClockTime = 0 s

Time = 0.028

Courant Number mean: 0.0145808 max: 1.19374
smoothSolver:  Solving for Ux, Initial residual = 0.573452, Final residual = 5.5886e-08, No Iterations 4
smoothSolver:  Solving for Uy, Initial residual = 0.2463, Final residual = 7.43326e-08, No Iterations 3
smoothSolver:  Solving for Uz, Initial residual = 0.244998, Final residual = 5.93398e-08, No Iterations 3
DICPCG:  Solving for p, Initial residual = 0.165227, Final residual = 9.2511e-08, No Iterations 102
time step continuity errors : sum local = 1.34561e-09, global = -5.84603e-11, cumulative = -1.76087e-11
DICPCG:  Solving for p, Initial residual = 0.00344685, Final residual = 7.96812e-08, No Iterations 96
time step continuity errors : sum local = 2.84619e-09, global = -1.91802e-11, cumulative = -3.67889e-11
ExecutionTime = 0.23 s  ClockTime = 0 s

Time = 0.03

Courant Number mean: 0.0447824 max: 3.26752
smoothSolver:  Solving for Ux, Initial residual = 0.584972, Final residual = 3.65509e+164, No Iterations 1000
smoothSolver:  Solving for Uy, Initial residual = 0.251835, Final residual = 1.11737e+164, No Iterations 1000
smoothSolver:  Solving for Uz, Initial residual = 0.252204, Final residual = 1.63302e+163, No Iterations 1000
#0  Foam::error::printStack(Foam::Ostream&) at ??:?
#1  Foam::sigFpe::sigHandler(int) at ??:?
#2  ? in "/lib64/libpthread.so.0"
#3  double Foam::sumProd<double>(Foam::UList<double> const&, Foam::UList<double> const&) at ??:?
#4  Foam::PCG::solve(Foam::Field<double>&, Foam::Field<double> const&, unsigned char) const at ??:?
#5  Foam::fvMatrix<double>::solveSegregated(Foam::dictionary const&) at ??:?
#6  Foam::fvMatrix<double>::solve(Foam::dictionary const&) at ??:?
#7  Foam::fvMatrix<double>::solve() at ??:?
#8  ? at ??:?
#9  __libc_start_main in "/lib64/libc.so.6"
#10  ? at ??:?
